*SPEF "ieee 1481-1999"
*DESIGN "heichips25_pudding"
*DATE "13:12:02 Friday November 07, 2025"
*VENDOR "The OpenROAD Project"
*PROGRAM "OpenROAD"
*VERSION "341650e72dad0dc8571822ff8c5d9c5e365327f7"
*DESIGN_FLOW "NAME_SCOPE LOCAL" "PIN_CAP NONE"
*DIVIDER /
*DELIMITER :
*BUS_DELIMITER []
*T_UNIT 1 NS
*C_UNIT 1 PF
*R_UNIT 1 OHM
*L_UNIT 1 HENRY

*NAME_MAP
*3 clk
*4 ena
*5 rst_n
*6 ui_in[0]
*7 ui_in[1]
*8 ui_in[2]
*9 ui_in[3]
*10 ui_in[4]
*11 ui_in[5]
*12 ui_in[6]
*13 ui_in[7]
*14 uio_in[0]
*15 uio_in[1]
*16 uio_in[2]
*17 uio_in[3]
*18 uio_in[4]
*19 uio_in[5]
*20 uio_in[6]
*21 uio_in[7]
*22 net113
*23 net114
*24 net115
*25 net116
*26 net117
*27 net118
*28 net119
*29 net120
*30 uio_out[0]
*31 uio_out[1]
*32 uio_out[2]
*33 uio_out[3]
*34 uio_out[4]
*35 uio_out[5]
*36 uio_out[6]
*37 uio_out[7]
*38 uo_out[0]
*39 uo_out[1]
*40 uo_out[2]
*41 uo_out[3]
*42 uo_out[4]
*43 uo_out[5]
*44 uo_out[6]
*45 uo_out[7]
*46 digitalH\.g\[0\]\.u\.OUTN
*47 digitalH\.g\[0\]\.u\.OUTP
*48 digitalH\.g\[100\]\.u\.OUTN
*49 digitalH\.g\[100\]\.u\.OUTP
*50 digitalH\.g\[101\]\.u\.OUTN
*51 digitalH\.g\[101\]\.u\.OUTP
*52 digitalH\.g\[102\]\.u\.OUTN
*53 digitalH\.g\[102\]\.u\.OUTP
*54 digitalH\.g\[103\]\.u\.OUTN
*55 digitalH\.g\[103\]\.u\.OUTP
*56 digitalH\.g\[104\]\.u\.OUTN
*57 digitalH\.g\[104\]\.u\.OUTP
*58 digitalH\.g\[105\]\.u\.OUTN
*59 digitalH\.g\[105\]\.u\.OUTP
*60 digitalH\.g\[106\]\.u\.OUTN
*61 digitalH\.g\[106\]\.u\.OUTP
*62 digitalH\.g\[107\]\.u\.OUTN
*63 digitalH\.g\[107\]\.u\.OUTP
*64 digitalH\.g\[108\]\.u\.OUTN
*65 digitalH\.g\[108\]\.u\.OUTP
*66 digitalH\.g\[109\]\.u\.OUTN
*67 digitalH\.g\[109\]\.u\.OUTP
*68 digitalH\.g\[10\]\.u\.OUTN
*69 digitalH\.g\[10\]\.u\.OUTP
*70 digitalH\.g\[110\]\.u\.OUTN
*71 digitalH\.g\[110\]\.u\.OUTP
*72 digitalH\.g\[111\]\.u\.OUTN
*73 digitalH\.g\[111\]\.u\.OUTP
*74 digitalH\.g\[112\]\.u\.OUTN
*75 digitalH\.g\[112\]\.u\.OUTP
*76 digitalH\.g\[113\]\.u\.OUTN
*77 digitalH\.g\[113\]\.u\.OUTP
*78 digitalH\.g\[114\]\.u\.OUTN
*79 digitalH\.g\[114\]\.u\.OUTP
*80 digitalH\.g\[115\]\.u\.OUTN
*81 digitalH\.g\[115\]\.u\.OUTP
*82 digitalH\.g\[116\]\.u\.OUTN
*83 digitalH\.g\[116\]\.u\.OUTP
*84 digitalH\.g\[117\]\.u\.OUTN
*85 digitalH\.g\[117\]\.u\.OUTP
*86 digitalH\.g\[118\]\.u\.OUTN
*87 digitalH\.g\[118\]\.u\.OUTP
*88 digitalH\.g\[119\]\.u\.OUTN
*89 digitalH\.g\[119\]\.u\.OUTP
*90 digitalH\.g\[11\]\.u\.OUTN
*91 digitalH\.g\[11\]\.u\.OUTP
*92 digitalH\.g\[120\]\.u\.OUTN
*93 digitalH\.g\[120\]\.u\.OUTP
*94 digitalH\.g\[121\]\.u\.OUTN
*95 digitalH\.g\[121\]\.u\.OUTP
*96 digitalH\.g\[122\]\.u\.OUTN
*97 digitalH\.g\[122\]\.u\.OUTP
*98 digitalH\.g\[123\]\.u\.OUTN
*99 digitalH\.g\[123\]\.u\.OUTP
*100 digitalH\.g\[124\]\.u\.OUTN
*101 digitalH\.g\[124\]\.u\.OUTP
*102 digitalH\.g\[125\]\.u\.OUTN
*103 digitalH\.g\[125\]\.u\.OUTP
*104 digitalH\.g\[126\]\.u\.OUTN
*105 digitalH\.g\[126\]\.u\.OUTP
*106 digitalH\.g\[127\]\.u\.OUTN
*107 digitalH\.g\[127\]\.u\.OUTP
*108 digitalH\.g\[12\]\.u\.OUTN
*109 digitalH\.g\[12\]\.u\.OUTP
*110 digitalH\.g\[13\]\.u\.OUTN
*111 digitalH\.g\[13\]\.u\.OUTP
*112 digitalH\.g\[14\]\.u\.OUTN
*113 digitalH\.g\[14\]\.u\.OUTP
*114 digitalH\.g\[15\]\.u\.OUTN
*115 digitalH\.g\[15\]\.u\.OUTP
*116 digitalH\.g\[16\]\.u\.OUTN
*117 digitalH\.g\[16\]\.u\.OUTP
*118 digitalH\.g\[17\]\.u\.OUTN
*119 digitalH\.g\[17\]\.u\.OUTP
*120 digitalH\.g\[18\]\.u\.OUTN
*121 digitalH\.g\[18\]\.u\.OUTP
*122 digitalH\.g\[19\]\.u\.OUTN
*123 digitalH\.g\[19\]\.u\.OUTP
*124 digitalH\.g\[1\]\.u\.OUTN
*125 digitalH\.g\[1\]\.u\.OUTP
*126 digitalH\.g\[20\]\.u\.OUTN
*127 digitalH\.g\[20\]\.u\.OUTP
*128 digitalH\.g\[21\]\.u\.OUTN
*129 digitalH\.g\[21\]\.u\.OUTP
*130 digitalH\.g\[22\]\.u\.OUTN
*131 digitalH\.g\[22\]\.u\.OUTP
*132 digitalH\.g\[23\]\.u\.OUTN
*133 digitalH\.g\[23\]\.u\.OUTP
*134 digitalH\.g\[24\]\.u\.OUTN
*135 digitalH\.g\[24\]\.u\.OUTP
*136 digitalH\.g\[25\]\.u\.OUTN
*137 digitalH\.g\[25\]\.u\.OUTP
*138 digitalH\.g\[26\]\.u\.OUTN
*139 digitalH\.g\[26\]\.u\.OUTP
*140 digitalH\.g\[27\]\.u\.OUTN
*141 digitalH\.g\[27\]\.u\.OUTP
*142 digitalH\.g\[28\]\.u\.OUTN
*143 digitalH\.g\[28\]\.u\.OUTP
*144 digitalH\.g\[29\]\.u\.OUTN
*145 digitalH\.g\[29\]\.u\.OUTP
*146 digitalH\.g\[2\]\.u\.OUTN
*147 digitalH\.g\[2\]\.u\.OUTP
*148 digitalH\.g\[30\]\.u\.OUTN
*149 digitalH\.g\[30\]\.u\.OUTP
*150 digitalH\.g\[31\]\.u\.OUTN
*151 digitalH\.g\[31\]\.u\.OUTP
*152 digitalH\.g\[32\]\.u\.OUTN
*153 digitalH\.g\[32\]\.u\.OUTP
*154 digitalH\.g\[33\]\.u\.OUTN
*155 digitalH\.g\[33\]\.u\.OUTP
*156 digitalH\.g\[34\]\.u\.OUTN
*157 digitalH\.g\[34\]\.u\.OUTP
*158 digitalH\.g\[35\]\.u\.OUTN
*159 digitalH\.g\[35\]\.u\.OUTP
*160 digitalH\.g\[36\]\.u\.OUTN
*161 digitalH\.g\[36\]\.u\.OUTP
*162 digitalH\.g\[37\]\.u\.OUTN
*163 digitalH\.g\[37\]\.u\.OUTP
*164 digitalH\.g\[38\]\.u\.OUTN
*165 digitalH\.g\[38\]\.u\.OUTP
*166 digitalH\.g\[39\]\.u\.OUTN
*167 digitalH\.g\[39\]\.u\.OUTP
*168 digitalH\.g\[3\]\.u\.OUTN
*169 digitalH\.g\[3\]\.u\.OUTP
*170 digitalH\.g\[40\]\.u\.OUTN
*171 digitalH\.g\[40\]\.u\.OUTP
*172 digitalH\.g\[41\]\.u\.OUTN
*173 digitalH\.g\[41\]\.u\.OUTP
*174 digitalH\.g\[42\]\.u\.OUTN
*175 digitalH\.g\[42\]\.u\.OUTP
*176 digitalH\.g\[43\]\.u\.OUTN
*177 digitalH\.g\[43\]\.u\.OUTP
*178 digitalH\.g\[44\]\.u\.OUTN
*179 digitalH\.g\[44\]\.u\.OUTP
*180 digitalH\.g\[45\]\.u\.OUTN
*181 digitalH\.g\[45\]\.u\.OUTP
*182 digitalH\.g\[46\]\.u\.OUTN
*183 digitalH\.g\[46\]\.u\.OUTP
*184 digitalH\.g\[47\]\.u\.OUTN
*185 digitalH\.g\[47\]\.u\.OUTP
*186 digitalH\.g\[48\]\.u\.OUTN
*187 digitalH\.g\[48\]\.u\.OUTP
*188 digitalH\.g\[49\]\.u\.OUTN
*189 digitalH\.g\[49\]\.u\.OUTP
*190 digitalH\.g\[4\]\.u\.OUTN
*191 digitalH\.g\[4\]\.u\.OUTP
*192 digitalH\.g\[50\]\.u\.OUTN
*193 digitalH\.g\[50\]\.u\.OUTP
*194 digitalH\.g\[51\]\.u\.OUTN
*195 digitalH\.g\[51\]\.u\.OUTP
*196 digitalH\.g\[52\]\.u\.OUTN
*197 digitalH\.g\[52\]\.u\.OUTP
*198 digitalH\.g\[53\]\.u\.OUTN
*199 digitalH\.g\[53\]\.u\.OUTP
*200 digitalH\.g\[54\]\.u\.OUTN
*201 digitalH\.g\[54\]\.u\.OUTP
*202 digitalH\.g\[55\]\.u\.OUTN
*203 digitalH\.g\[55\]\.u\.OUTP
*204 digitalH\.g\[56\]\.u\.OUTN
*205 digitalH\.g\[56\]\.u\.OUTP
*206 digitalH\.g\[57\]\.u\.OUTN
*207 digitalH\.g\[57\]\.u\.OUTP
*208 digitalH\.g\[58\]\.u\.OUTN
*209 digitalH\.g\[58\]\.u\.OUTP
*210 digitalH\.g\[59\]\.u\.OUTN
*211 digitalH\.g\[59\]\.u\.OUTP
*212 digitalH\.g\[5\]\.u\.OUTN
*213 digitalH\.g\[5\]\.u\.OUTP
*214 digitalH\.g\[60\]\.u\.OUTN
*215 digitalH\.g\[60\]\.u\.OUTP
*216 digitalH\.g\[61\]\.u\.OUTN
*217 digitalH\.g\[61\]\.u\.OUTP
*218 digitalH\.g\[62\]\.u\.OUTN
*219 digitalH\.g\[62\]\.u\.OUTP
*220 digitalH\.g\[63\]\.u\.OUTN
*221 digitalH\.g\[63\]\.u\.OUTP
*222 digitalH\.g\[64\]\.u\.OUTN
*223 digitalH\.g\[64\]\.u\.OUTP
*224 digitalH\.g\[65\]\.u\.OUTN
*225 digitalH\.g\[65\]\.u\.OUTP
*226 digitalH\.g\[66\]\.u\.OUTN
*227 digitalH\.g\[66\]\.u\.OUTP
*228 digitalH\.g\[67\]\.u\.OUTN
*229 digitalH\.g\[67\]\.u\.OUTP
*230 digitalH\.g\[68\]\.u\.OUTN
*231 digitalH\.g\[68\]\.u\.OUTP
*232 digitalH\.g\[69\]\.u\.OUTN
*233 digitalH\.g\[69\]\.u\.OUTP
*234 digitalH\.g\[6\]\.u\.OUTN
*235 digitalH\.g\[6\]\.u\.OUTP
*236 digitalH\.g\[70\]\.u\.OUTN
*237 digitalH\.g\[70\]\.u\.OUTP
*238 digitalH\.g\[71\]\.u\.OUTN
*239 digitalH\.g\[71\]\.u\.OUTP
*240 digitalH\.g\[72\]\.u\.OUTN
*241 digitalH\.g\[72\]\.u\.OUTP
*242 digitalH\.g\[73\]\.u\.OUTN
*243 digitalH\.g\[73\]\.u\.OUTP
*244 digitalH\.g\[74\]\.u\.OUTN
*245 digitalH\.g\[74\]\.u\.OUTP
*246 digitalH\.g\[75\]\.u\.OUTN
*247 digitalH\.g\[75\]\.u\.OUTP
*248 digitalH\.g\[76\]\.u\.OUTN
*249 digitalH\.g\[76\]\.u\.OUTP
*250 digitalH\.g\[77\]\.u\.OUTN
*251 digitalH\.g\[77\]\.u\.OUTP
*252 digitalH\.g\[78\]\.u\.OUTN
*253 digitalH\.g\[78\]\.u\.OUTP
*254 digitalH\.g\[79\]\.u\.OUTN
*255 digitalH\.g\[79\]\.u\.OUTP
*256 digitalH\.g\[7\]\.u\.OUTN
*257 digitalH\.g\[7\]\.u\.OUTP
*258 digitalH\.g\[80\]\.u\.OUTN
*259 digitalH\.g\[80\]\.u\.OUTP
*260 digitalH\.g\[81\]\.u\.OUTN
*261 digitalH\.g\[81\]\.u\.OUTP
*262 digitalH\.g\[82\]\.u\.OUTN
*263 digitalH\.g\[82\]\.u\.OUTP
*264 digitalH\.g\[83\]\.u\.OUTN
*265 digitalH\.g\[83\]\.u\.OUTP
*266 digitalH\.g\[84\]\.u\.OUTN
*267 digitalH\.g\[84\]\.u\.OUTP
*268 digitalH\.g\[85\]\.u\.OUTN
*269 digitalH\.g\[85\]\.u\.OUTP
*270 digitalH\.g\[86\]\.u\.OUTN
*271 digitalH\.g\[86\]\.u\.OUTP
*272 digitalH\.g\[87\]\.u\.OUTN
*273 digitalH\.g\[87\]\.u\.OUTP
*274 digitalH\.g\[88\]\.u\.OUTN
*275 digitalH\.g\[88\]\.u\.OUTP
*276 digitalH\.g\[89\]\.u\.OUTN
*277 digitalH\.g\[89\]\.u\.OUTP
*278 digitalH\.g\[8\]\.u\.OUTN
*279 digitalH\.g\[8\]\.u\.OUTP
*280 digitalH\.g\[90\]\.u\.OUTN
*281 digitalH\.g\[90\]\.u\.OUTP
*282 digitalH\.g\[91\]\.u\.OUTN
*283 digitalH\.g\[91\]\.u\.OUTP
*284 digitalH\.g\[92\]\.u\.OUTN
*285 digitalH\.g\[92\]\.u\.OUTP
*286 digitalH\.g\[93\]\.u\.OUTN
*287 digitalH\.g\[93\]\.u\.OUTP
*288 digitalH\.g\[94\]\.u\.OUTN
*289 digitalH\.g\[94\]\.u\.OUTP
*290 digitalH\.g\[95\]\.u\.OUTN
*291 digitalH\.g\[95\]\.u\.OUTP
*292 digitalH\.g\[96\]\.u\.OUTN
*293 digitalH\.g\[96\]\.u\.OUTP
*294 digitalH\.g\[97\]\.u\.OUTN
*295 digitalH\.g\[97\]\.u\.OUTP
*296 digitalH\.g\[98\]\.u\.OUTN
*297 digitalH\.g\[98\]\.u\.OUTP
*298 digitalH\.g\[99\]\.u\.OUTN
*299 digitalH\.g\[99\]\.u\.OUTP
*300 digitalH\.g\[9\]\.u\.OUTN
*301 digitalH\.g\[9\]\.u\.OUTP
*302 digitalL\.g\[0\]\.u\.OUTN
*303 digitalL\.g\[0\]\.u\.OUTP
*304 digitalL\.g\[100\]\.u\.OUTN
*305 digitalL\.g\[100\]\.u\.OUTP
*306 digitalL\.g\[101\]\.u\.OUTN
*307 digitalL\.g\[101\]\.u\.OUTP
*308 digitalL\.g\[102\]\.u\.OUTN
*309 digitalL\.g\[102\]\.u\.OUTP
*310 digitalL\.g\[103\]\.u\.OUTN
*311 digitalL\.g\[103\]\.u\.OUTP
*312 digitalL\.g\[104\]\.u\.OUTN
*313 digitalL\.g\[104\]\.u\.OUTP
*314 digitalL\.g\[105\]\.u\.OUTN
*315 digitalL\.g\[105\]\.u\.OUTP
*316 digitalL\.g\[106\]\.u\.OUTN
*317 digitalL\.g\[106\]\.u\.OUTP
*318 digitalL\.g\[107\]\.u\.OUTN
*319 digitalL\.g\[107\]\.u\.OUTP
*320 digitalL\.g\[108\]\.u\.OUTN
*321 digitalL\.g\[108\]\.u\.OUTP
*322 digitalL\.g\[109\]\.u\.OUTN
*323 digitalL\.g\[109\]\.u\.OUTP
*324 digitalL\.g\[10\]\.u\.OUTN
*325 digitalL\.g\[10\]\.u\.OUTP
*326 digitalL\.g\[110\]\.u\.OUTN
*327 digitalL\.g\[110\]\.u\.OUTP
*328 digitalL\.g\[111\]\.u\.OUTN
*329 digitalL\.g\[111\]\.u\.OUTP
*330 digitalL\.g\[112\]\.u\.OUTN
*331 digitalL\.g\[112\]\.u\.OUTP
*332 digitalL\.g\[113\]\.u\.OUTN
*333 digitalL\.g\[113\]\.u\.OUTP
*334 digitalL\.g\[114\]\.u\.OUTN
*335 digitalL\.g\[114\]\.u\.OUTP
*336 digitalL\.g\[115\]\.u\.OUTN
*337 digitalL\.g\[115\]\.u\.OUTP
*338 digitalL\.g\[116\]\.u\.OUTN
*339 digitalL\.g\[116\]\.u\.OUTP
*340 digitalL\.g\[117\]\.u\.OUTN
*341 digitalL\.g\[117\]\.u\.OUTP
*342 digitalL\.g\[118\]\.u\.OUTN
*343 digitalL\.g\[118\]\.u\.OUTP
*344 digitalL\.g\[119\]\.u\.OUTN
*345 digitalL\.g\[119\]\.u\.OUTP
*346 digitalL\.g\[11\]\.u\.OUTN
*347 digitalL\.g\[11\]\.u\.OUTP
*348 digitalL\.g\[120\]\.u\.OUTN
*349 digitalL\.g\[120\]\.u\.OUTP
*350 digitalL\.g\[121\]\.u\.OUTN
*351 digitalL\.g\[121\]\.u\.OUTP
*352 digitalL\.g\[122\]\.u\.OUTN
*353 digitalL\.g\[122\]\.u\.OUTP
*354 digitalL\.g\[123\]\.u\.OUTN
*355 digitalL\.g\[123\]\.u\.OUTP
*356 digitalL\.g\[124\]\.u\.OUTN
*357 digitalL\.g\[124\]\.u\.OUTP
*358 digitalL\.g\[125\]\.u\.OUTN
*359 digitalL\.g\[125\]\.u\.OUTP
*360 digitalL\.g\[126\]\.u\.OUTN
*361 digitalL\.g\[126\]\.u\.OUTP
*362 digitalL\.g\[127\]\.u\.OUTN
*363 digitalL\.g\[127\]\.u\.OUTP
*364 digitalL\.g\[12\]\.u\.OUTN
*365 digitalL\.g\[12\]\.u\.OUTP
*366 digitalL\.g\[13\]\.u\.OUTN
*367 digitalL\.g\[13\]\.u\.OUTP
*368 digitalL\.g\[14\]\.u\.OUTN
*369 digitalL\.g\[14\]\.u\.OUTP
*370 digitalL\.g\[15\]\.u\.OUTN
*371 digitalL\.g\[15\]\.u\.OUTP
*372 digitalL\.g\[16\]\.u\.OUTN
*373 digitalL\.g\[16\]\.u\.OUTP
*374 digitalL\.g\[17\]\.u\.OUTN
*375 digitalL\.g\[17\]\.u\.OUTP
*376 digitalL\.g\[18\]\.u\.OUTN
*377 digitalL\.g\[18\]\.u\.OUTP
*378 digitalL\.g\[19\]\.u\.OUTN
*379 digitalL\.g\[19\]\.u\.OUTP
*380 digitalL\.g\[1\]\.u\.OUTN
*381 digitalL\.g\[1\]\.u\.OUTP
*382 digitalL\.g\[20\]\.u\.OUTN
*383 digitalL\.g\[20\]\.u\.OUTP
*384 digitalL\.g\[21\]\.u\.OUTN
*385 digitalL\.g\[21\]\.u\.OUTP
*386 digitalL\.g\[22\]\.u\.OUTN
*387 digitalL\.g\[22\]\.u\.OUTP
*388 digitalL\.g\[23\]\.u\.OUTN
*389 digitalL\.g\[23\]\.u\.OUTP
*390 digitalL\.g\[24\]\.u\.OUTN
*391 digitalL\.g\[24\]\.u\.OUTP
*392 digitalL\.g\[25\]\.u\.OUTN
*393 digitalL\.g\[25\]\.u\.OUTP
*394 digitalL\.g\[26\]\.u\.OUTN
*395 digitalL\.g\[26\]\.u\.OUTP
*396 digitalL\.g\[27\]\.u\.OUTN
*397 digitalL\.g\[27\]\.u\.OUTP
*398 digitalL\.g\[28\]\.u\.OUTN
*399 digitalL\.g\[28\]\.u\.OUTP
*400 digitalL\.g\[29\]\.u\.OUTN
*401 digitalL\.g\[29\]\.u\.OUTP
*402 digitalL\.g\[2\]\.u\.OUTN
*403 digitalL\.g\[2\]\.u\.OUTP
*404 digitalL\.g\[30\]\.u\.OUTN
*405 digitalL\.g\[30\]\.u\.OUTP
*406 digitalL\.g\[31\]\.u\.OUTN
*407 digitalL\.g\[31\]\.u\.OUTP
*408 digitalL\.g\[32\]\.u\.OUTN
*409 digitalL\.g\[32\]\.u\.OUTP
*410 digitalL\.g\[33\]\.u\.OUTN
*411 digitalL\.g\[33\]\.u\.OUTP
*412 digitalL\.g\[34\]\.u\.OUTN
*413 digitalL\.g\[34\]\.u\.OUTP
*414 digitalL\.g\[35\]\.u\.OUTN
*415 digitalL\.g\[35\]\.u\.OUTP
*416 digitalL\.g\[36\]\.u\.OUTN
*417 digitalL\.g\[36\]\.u\.OUTP
*418 digitalL\.g\[37\]\.u\.OUTN
*419 digitalL\.g\[37\]\.u\.OUTP
*420 digitalL\.g\[38\]\.u\.OUTN
*421 digitalL\.g\[38\]\.u\.OUTP
*422 digitalL\.g\[39\]\.u\.OUTN
*423 digitalL\.g\[39\]\.u\.OUTP
*424 digitalL\.g\[3\]\.u\.OUTN
*425 digitalL\.g\[3\]\.u\.OUTP
*426 digitalL\.g\[40\]\.u\.OUTN
*427 digitalL\.g\[40\]\.u\.OUTP
*428 digitalL\.g\[41\]\.u\.OUTN
*429 digitalL\.g\[41\]\.u\.OUTP
*430 digitalL\.g\[42\]\.u\.OUTN
*431 digitalL\.g\[42\]\.u\.OUTP
*432 digitalL\.g\[43\]\.u\.OUTN
*433 digitalL\.g\[43\]\.u\.OUTP
*434 digitalL\.g\[44\]\.u\.OUTN
*435 digitalL\.g\[44\]\.u\.OUTP
*436 digitalL\.g\[45\]\.u\.OUTN
*437 digitalL\.g\[45\]\.u\.OUTP
*438 digitalL\.g\[46\]\.u\.OUTN
*439 digitalL\.g\[46\]\.u\.OUTP
*440 digitalL\.g\[47\]\.u\.OUTN
*441 digitalL\.g\[47\]\.u\.OUTP
*442 digitalL\.g\[48\]\.u\.OUTN
*443 digitalL\.g\[48\]\.u\.OUTP
*444 digitalL\.g\[49\]\.u\.OUTN
*445 digitalL\.g\[49\]\.u\.OUTP
*446 digitalL\.g\[4\]\.u\.OUTN
*447 digitalL\.g\[4\]\.u\.OUTP
*448 digitalL\.g\[50\]\.u\.OUTN
*449 digitalL\.g\[50\]\.u\.OUTP
*450 digitalL\.g\[51\]\.u\.OUTN
*451 digitalL\.g\[51\]\.u\.OUTP
*452 digitalL\.g\[52\]\.u\.OUTN
*453 digitalL\.g\[52\]\.u\.OUTP
*454 digitalL\.g\[53\]\.u\.OUTN
*455 digitalL\.g\[53\]\.u\.OUTP
*456 digitalL\.g\[54\]\.u\.OUTN
*457 digitalL\.g\[54\]\.u\.OUTP
*458 digitalL\.g\[55\]\.u\.OUTN
*459 digitalL\.g\[55\]\.u\.OUTP
*460 digitalL\.g\[56\]\.u\.OUTN
*461 digitalL\.g\[56\]\.u\.OUTP
*462 digitalL\.g\[57\]\.u\.OUTN
*463 digitalL\.g\[57\]\.u\.OUTP
*464 digitalL\.g\[58\]\.u\.OUTN
*465 digitalL\.g\[58\]\.u\.OUTP
*466 digitalL\.g\[59\]\.u\.OUTN
*467 digitalL\.g\[59\]\.u\.OUTP
*468 digitalL\.g\[5\]\.u\.OUTN
*469 digitalL\.g\[5\]\.u\.OUTP
*470 digitalL\.g\[60\]\.u\.OUTN
*471 digitalL\.g\[60\]\.u\.OUTP
*472 digitalL\.g\[61\]\.u\.OUTN
*473 digitalL\.g\[61\]\.u\.OUTP
*474 digitalL\.g\[62\]\.u\.OUTN
*475 digitalL\.g\[62\]\.u\.OUTP
*476 digitalL\.g\[63\]\.u\.OUTN
*477 digitalL\.g\[63\]\.u\.OUTP
*478 digitalL\.g\[64\]\.u\.OUTN
*479 digitalL\.g\[64\]\.u\.OUTP
*480 digitalL\.g\[65\]\.u\.OUTN
*481 digitalL\.g\[65\]\.u\.OUTP
*482 digitalL\.g\[66\]\.u\.OUTN
*483 digitalL\.g\[66\]\.u\.OUTP
*484 digitalL\.g\[67\]\.u\.OUTN
*485 digitalL\.g\[67\]\.u\.OUTP
*486 digitalL\.g\[68\]\.u\.OUTN
*487 digitalL\.g\[68\]\.u\.OUTP
*488 digitalL\.g\[69\]\.u\.OUTN
*489 digitalL\.g\[69\]\.u\.OUTP
*490 digitalL\.g\[6\]\.u\.OUTN
*491 digitalL\.g\[6\]\.u\.OUTP
*492 digitalL\.g\[70\]\.u\.OUTN
*493 digitalL\.g\[70\]\.u\.OUTP
*494 digitalL\.g\[71\]\.u\.OUTN
*495 digitalL\.g\[71\]\.u\.OUTP
*496 digitalL\.g\[72\]\.u\.OUTN
*497 digitalL\.g\[72\]\.u\.OUTP
*498 digitalL\.g\[73\]\.u\.OUTN
*499 digitalL\.g\[73\]\.u\.OUTP
*500 digitalL\.g\[74\]\.u\.OUTN
*501 digitalL\.g\[74\]\.u\.OUTP
*502 digitalL\.g\[75\]\.u\.OUTN
*503 digitalL\.g\[75\]\.u\.OUTP
*504 digitalL\.g\[76\]\.u\.OUTN
*505 digitalL\.g\[76\]\.u\.OUTP
*506 digitalL\.g\[77\]\.u\.OUTN
*507 digitalL\.g\[77\]\.u\.OUTP
*508 digitalL\.g\[78\]\.u\.OUTN
*509 digitalL\.g\[78\]\.u\.OUTP
*510 digitalL\.g\[79\]\.u\.OUTN
*511 digitalL\.g\[79\]\.u\.OUTP
*512 digitalL\.g\[7\]\.u\.OUTN
*513 digitalL\.g\[7\]\.u\.OUTP
*514 digitalL\.g\[80\]\.u\.OUTN
*515 digitalL\.g\[80\]\.u\.OUTP
*516 digitalL\.g\[81\]\.u\.OUTN
*517 digitalL\.g\[81\]\.u\.OUTP
*518 digitalL\.g\[82\]\.u\.OUTN
*519 digitalL\.g\[82\]\.u\.OUTP
*520 digitalL\.g\[83\]\.u\.OUTN
*521 digitalL\.g\[83\]\.u\.OUTP
*522 digitalL\.g\[84\]\.u\.OUTN
*523 digitalL\.g\[84\]\.u\.OUTP
*524 digitalL\.g\[85\]\.u\.OUTN
*525 digitalL\.g\[85\]\.u\.OUTP
*526 digitalL\.g\[86\]\.u\.OUTN
*527 digitalL\.g\[86\]\.u\.OUTP
*528 digitalL\.g\[87\]\.u\.OUTN
*529 digitalL\.g\[87\]\.u\.OUTP
*530 digitalL\.g\[88\]\.u\.OUTN
*531 digitalL\.g\[88\]\.u\.OUTP
*532 digitalL\.g\[89\]\.u\.OUTN
*533 digitalL\.g\[89\]\.u\.OUTP
*534 digitalL\.g\[8\]\.u\.OUTN
*535 digitalL\.g\[8\]\.u\.OUTP
*536 digitalL\.g\[90\]\.u\.OUTN
*537 digitalL\.g\[90\]\.u\.OUTP
*538 digitalL\.g\[91\]\.u\.OUTN
*539 digitalL\.g\[91\]\.u\.OUTP
*540 digitalL\.g\[92\]\.u\.OUTN
*541 digitalL\.g\[92\]\.u\.OUTP
*542 digitalL\.g\[93\]\.u\.OUTN
*543 digitalL\.g\[93\]\.u\.OUTP
*544 digitalL\.g\[94\]\.u\.OUTN
*545 digitalL\.g\[94\]\.u\.OUTP
*546 digitalL\.g\[95\]\.u\.OUTN
*547 digitalL\.g\[95\]\.u\.OUTP
*548 digitalL\.g\[96\]\.u\.OUTN
*549 digitalL\.g\[96\]\.u\.OUTP
*550 digitalL\.g\[97\]\.u\.OUTN
*551 digitalL\.g\[97\]\.u\.OUTP
*552 digitalL\.g\[98\]\.u\.OUTN
*553 digitalL\.g\[98\]\.u\.OUTP
*554 digitalL\.g\[99\]\.u\.OUTN
*555 digitalL\.g\[99\]\.u\.OUTP
*556 digitalL\.g\[9\]\.u\.OUTN
*557 digitalL\.g\[9\]\.u\.OUTP
*558 digitalenH\.g\[0\]\.u\.OUTN
*559 digitalenH\.g\[0\]\.u\.OUTP
*560 digitalenH\.g\[1\]\.u\.OUTN
*561 digitalenH\.g\[1\]\.u\.OUTP
*562 digitalenH\.g\[2\]\.u\.OUTN
*563 digitalenH\.g\[2\]\.u\.OUTP
*564 digitalenH\.g\[3\]\.u\.OUTN
*565 digitalenH\.g\[3\]\.u\.OUTP
*566 digitalenL\.g\[0\]\.u\.OUTN
*567 digitalenL\.g\[0\]\.u\.OUTP
*568 digitalenL\.g\[1\]\.u\.OUTN
*569 digitalenL\.g\[1\]\.u\.OUTP
*570 digitalenL\.g\[2\]\.u\.OUTN
*571 digitalenL\.g\[2\]\.u\.OUTP
*572 digitalenL\.g\[3\]\.u\.OUTN
*573 digitalenL\.g\[3\]\.u\.OUTP
*574 net1
*575 net10
*576 net100
*577 net101
*578 net102
*579 net103
*580 net104
*581 net105
*582 net106
*583 net107
*584 net108
*585 net109
*586 net11
*587 net110
*588 net111
*589 net112
*590 net12
*591 net13
*592 net14
*593 net15
*594 net16
*595 net17
*596 net18
*597 net19
*598 net2
*599 net20
*600 net21
*601 net22
*602 net23
*603 net24
*604 net25
*605 net26
*606 net27
*607 net28
*608 net29
*609 net3
*610 net30
*611 net31
*612 net32
*613 net33
*614 net34
*615 net35
*616 net36
*617 net37
*618 net38
*619 net39
*620 net4
*621 net40
*622 net41
*623 net42
*624 net43
*625 net44
*626 net45
*627 net46
*628 net47
*629 net48
*630 net49
*631 net5
*632 net50
*633 net51
*634 net52
*635 net53
*636 net54
*637 net55
*638 net56
*639 net57
*640 net58
*641 net59
*642 net6
*643 net60
*644 net61
*645 net62
*646 net63
*647 net64
*648 net65
*649 net66
*650 net67
*651 net68
*652 net69
*653 net7
*654 net70
*655 net71
*656 net72
*657 net73
*658 net74
*659 net75
*660 net76
*661 net77
*662 net78
*663 net79
*664 net8
*665 net80
*666 net81
*667 net82
*668 net83
*669 net84
*670 net85
*671 net86
*672 net87
*673 net88
*674 net89
*675 net9
*676 net90
*677 net91
*678 net92
*679 net93
*680 net94
*681 net95
*682 net96
*683 net97
*684 net98
*685 net99
*686 FILLER_0_0
*687 FILLER_0_1001
*688 FILLER_0_1008
*689 FILLER_0_1015
*690 FILLER_0_1022
*691 FILLER_0_105
*692 FILLER_0_112
*693 FILLER_0_119
*694 FILLER_0_126
*695 FILLER_0_133
*696 FILLER_0_14
*697 FILLER_0_140
*698 FILLER_0_147
*699 FILLER_0_154
*700 FILLER_0_161
*701 FILLER_0_168
*702 FILLER_0_175
*703 FILLER_0_182
*704 FILLER_0_189
*705 FILLER_0_196
*706 FILLER_0_203
*707 FILLER_0_21
*708 FILLER_0_210
*709 FILLER_0_217
*710 FILLER_0_224
*711 FILLER_0_231
*712 FILLER_0_238
*713 FILLER_0_245
*714 FILLER_0_252
*715 FILLER_0_259
*716 FILLER_0_266
*717 FILLER_0_273
*718 FILLER_0_28
*719 FILLER_0_280
*720 FILLER_0_287
*721 FILLER_0_294
*722 FILLER_0_301
*723 FILLER_0_308
*724 FILLER_0_315
*725 FILLER_0_322
*726 FILLER_0_329
*727 FILLER_0_336
*728 FILLER_0_343
*729 FILLER_0_35
*730 FILLER_0_350
*731 FILLER_0_357
*732 FILLER_0_364
*733 FILLER_0_371
*734 FILLER_0_378
*735 FILLER_0_385
*736 FILLER_0_392
*737 FILLER_0_399
*738 FILLER_0_406
*739 FILLER_0_413
*740 FILLER_0_42
*741 FILLER_0_420
*742 FILLER_0_427
*743 FILLER_0_434
*744 FILLER_0_441
*745 FILLER_0_448
*746 FILLER_0_455
*747 FILLER_0_462
*748 FILLER_0_469
*749 FILLER_0_476
*750 FILLER_0_483
*751 FILLER_0_49
*752 FILLER_0_490
*753 FILLER_0_497
*754 FILLER_0_504
*755 FILLER_0_511
*756 FILLER_0_518
*757 FILLER_0_525
*758 FILLER_0_532
*759 FILLER_0_539
*760 FILLER_0_546
*761 FILLER_0_553
*762 FILLER_0_56
*763 FILLER_0_560
*764 FILLER_0_567
*765 FILLER_0_574
*766 FILLER_0_581
*767 FILLER_0_588
*768 FILLER_0_595
*769 FILLER_0_602
*770 FILLER_0_609
*771 FILLER_0_616
*772 FILLER_0_623
*773 FILLER_0_63
*774 FILLER_0_630
*775 FILLER_0_637
*776 FILLER_0_644
*777 FILLER_0_651
*778 FILLER_0_658
*779 FILLER_0_665
*780 FILLER_0_672
*781 FILLER_0_679
*782 FILLER_0_686
*783 FILLER_0_693
*784 FILLER_0_7
*785 FILLER_0_70
*786 FILLER_0_700
*787 FILLER_0_707
*788 FILLER_0_714
*789 FILLER_0_721
*790 FILLER_0_728
*791 FILLER_0_735
*792 FILLER_0_742
*793 FILLER_0_749
*794 FILLER_0_756
*795 FILLER_0_763
*796 FILLER_0_77
*797 FILLER_0_770
*798 FILLER_0_777
*799 FILLER_0_784
*800 FILLER_0_791
*801 FILLER_0_798
*802 FILLER_0_805
*803 FILLER_0_812
*804 FILLER_0_819
*805 FILLER_0_826
*806 FILLER_0_833
*807 FILLER_0_84
*808 FILLER_0_840
*809 FILLER_0_847
*810 FILLER_0_854
*811 FILLER_0_861
*812 FILLER_0_868
*813 FILLER_0_875
*814 FILLER_0_882
*815 FILLER_0_889
*816 FILLER_0_896
*817 FILLER_0_903
*818 FILLER_0_91
*819 FILLER_0_910
*820 FILLER_0_917
*821 FILLER_0_924
*822 FILLER_0_931
*823 FILLER_0_938
*824 FILLER_0_945
*825 FILLER_0_952
*826 FILLER_0_959
*827 FILLER_0_966
*828 FILLER_0_973
*829 FILLER_0_98
*830 FILLER_0_980
*831 FILLER_0_987
*832 FILLER_0_994
*833 FILLER_10_101
*834 FILLER_10_108
*835 FILLER_10_115
*836 FILLER_10_122
*837 FILLER_10_129
*838 FILLER_10_136
*839 FILLER_10_143
*840 FILLER_10_150
*841 FILLER_10_157
*842 FILLER_10_164
*843 FILLER_10_17
*844 FILLER_10_171
*845 FILLER_10_178
*846 FILLER_10_185
*847 FILLER_10_192
*848 FILLER_10_199
*849 FILLER_10_206
*850 FILLER_10_213
*851 FILLER_10_220
*852 FILLER_10_227
*853 FILLER_10_234
*854 FILLER_10_24
*855 FILLER_10_241
*856 FILLER_10_248
*857 FILLER_10_255
*858 FILLER_10_262
*859 FILLER_10_269
*860 FILLER_10_276
*861 FILLER_10_283
*862 FILLER_10_290
*863 FILLER_10_297
*864 FILLER_10_304
*865 FILLER_10_31
*866 FILLER_10_311
*867 FILLER_10_318
*868 FILLER_10_325
*869 FILLER_10_332
*870 FILLER_10_339
*871 FILLER_10_346
*872 FILLER_10_353
*873 FILLER_10_360
*874 FILLER_10_367
*875 FILLER_10_374
*876 FILLER_10_38
*877 FILLER_10_381
*878 FILLER_10_388
*879 FILLER_10_395
*880 FILLER_10_4
*881 FILLER_10_402
*882 FILLER_10_409
*883 FILLER_10_416
*884 FILLER_10_423
*885 FILLER_10_430
*886 FILLER_10_437
*887 FILLER_10_444
*888 FILLER_10_45
*889 FILLER_10_451
*890 FILLER_10_458
*891 FILLER_10_465
*892 FILLER_10_472
*893 FILLER_10_479
*894 FILLER_10_486
*895 FILLER_10_493
*896 FILLER_10_500
*897 FILLER_10_507
*898 FILLER_10_514
*899 FILLER_10_52
*900 FILLER_10_521
*901 FILLER_10_528
*902 FILLER_10_535
*903 FILLER_10_542
*904 FILLER_10_549
*905 FILLER_10_556
*906 FILLER_10_563
*907 FILLER_10_570
*908 FILLER_10_577
*909 FILLER_10_584
*910 FILLER_10_59
*911 FILLER_10_591
*912 FILLER_10_598
*913 FILLER_10_605
*914 FILLER_10_612
*915 FILLER_10_619
*916 FILLER_10_626
*917 FILLER_10_633
*918 FILLER_10_640
*919 FILLER_10_647
*920 FILLER_10_654
*921 FILLER_10_66
*922 FILLER_10_661
*923 FILLER_10_668
*924 FILLER_10_675
*925 FILLER_10_682
*926 FILLER_10_689
*927 FILLER_10_696
*928 FILLER_10_703
*929 FILLER_10_710
*930 FILLER_10_717
*931 FILLER_10_724
*932 FILLER_10_73
*933 FILLER_10_731
*934 FILLER_10_737
*935 FILLER_10_80
*936 FILLER_10_87
*937 FILLER_10_94
*938 FILLER_11_102
*939 FILLER_11_109
*940 FILLER_11_11
*941 FILLER_11_116
*942 FILLER_11_123
*943 FILLER_11_130
*944 FILLER_11_137
*945 FILLER_11_144
*946 FILLER_11_151
*947 FILLER_11_158
*948 FILLER_11_165
*949 FILLER_11_172
*950 FILLER_11_179
*951 FILLER_11_18
*952 FILLER_11_186
*953 FILLER_11_193
*954 FILLER_11_200
*955 FILLER_11_207
*956 FILLER_11_214
*957 FILLER_11_221
*958 FILLER_11_228
*959 FILLER_11_235
*960 FILLER_11_242
*961 FILLER_11_249
*962 FILLER_11_25
*963 FILLER_11_256
*964 FILLER_11_263
*965 FILLER_11_270
*966 FILLER_11_277
*967 FILLER_11_284
*968 FILLER_11_291
*969 FILLER_11_298
*970 FILLER_11_305
*971 FILLER_11_312
*972 FILLER_11_319
*973 FILLER_11_32
*974 FILLER_11_326
*975 FILLER_11_333
*976 FILLER_11_340
*977 FILLER_11_347
*978 FILLER_11_354
*979 FILLER_11_361
*980 FILLER_11_368
*981 FILLER_11_375
*982 FILLER_11_382
*983 FILLER_11_389
*984 FILLER_11_39
*985 FILLER_11_396
*986 FILLER_11_4
*987 FILLER_11_403
*988 FILLER_11_410
*989 FILLER_11_417
*990 FILLER_11_424
*991 FILLER_11_431
*992 FILLER_11_438
*993 FILLER_11_445
*994 FILLER_11_452
*995 FILLER_11_459
*996 FILLER_11_46
*997 FILLER_11_466
*998 FILLER_11_473
*999 FILLER_11_480
*1000 FILLER_11_487
*1001 FILLER_11_494
*1002 FILLER_11_501
*1003 FILLER_11_508
*1004 FILLER_11_515
*1005 FILLER_11_522
*1006 FILLER_11_529
*1007 FILLER_11_53
*1008 FILLER_11_536
*1009 FILLER_11_543
*1010 FILLER_11_550
*1011 FILLER_11_557
*1012 FILLER_11_564
*1013 FILLER_11_571
*1014 FILLER_11_578
*1015 FILLER_11_585
*1016 FILLER_11_592
*1017 FILLER_11_599
*1018 FILLER_11_60
*1019 FILLER_11_606
*1020 FILLER_11_613
*1021 FILLER_11_620
*1022 FILLER_11_627
*1023 FILLER_11_634
*1024 FILLER_11_641
*1025 FILLER_11_648
*1026 FILLER_11_655
*1027 FILLER_11_662
*1028 FILLER_11_669
*1029 FILLER_11_67
*1030 FILLER_11_676
*1031 FILLER_11_683
*1032 FILLER_11_690
*1033 FILLER_11_697
*1034 FILLER_11_704
*1035 FILLER_11_711
*1036 FILLER_11_718
*1037 FILLER_11_725
*1038 FILLER_11_732
*1039 FILLER_11_74
*1040 FILLER_11_81
*1041 FILLER_11_88
*1042 FILLER_11_95
*1043 FILLER_12_103
*1044 FILLER_12_110
*1045 FILLER_12_117
*1046 FILLER_12_12
*1047 FILLER_12_124
*1048 FILLER_12_131
*1049 FILLER_12_138
*1050 FILLER_12_145
*1051 FILLER_12_152
*1052 FILLER_12_159
*1053 FILLER_12_166
*1054 FILLER_12_173
*1055 FILLER_12_180
*1056 FILLER_12_187
*1057 FILLER_12_19
*1058 FILLER_12_194
*1059 FILLER_12_201
*1060 FILLER_12_208
*1061 FILLER_12_215
*1062 FILLER_12_222
*1063 FILLER_12_229
*1064 FILLER_12_236
*1065 FILLER_12_243
*1066 FILLER_12_250
*1067 FILLER_12_257
*1068 FILLER_12_26
*1069 FILLER_12_264
*1070 FILLER_12_271
*1071 FILLER_12_278
*1072 FILLER_12_285
*1073 FILLER_12_292
*1074 FILLER_12_299
*1075 FILLER_12_306
*1076 FILLER_12_313
*1077 FILLER_12_320
*1078 FILLER_12_327
*1079 FILLER_12_33
*1080 FILLER_12_334
*1081 FILLER_12_341
*1082 FILLER_12_348
*1083 FILLER_12_355
*1084 FILLER_12_362
*1085 FILLER_12_369
*1086 FILLER_12_376
*1087 FILLER_12_383
*1088 FILLER_12_390
*1089 FILLER_12_397
*1090 FILLER_12_40
*1091 FILLER_12_404
*1092 FILLER_12_411
*1093 FILLER_12_418
*1094 FILLER_12_425
*1095 FILLER_12_432
*1096 FILLER_12_439
*1097 FILLER_12_446
*1098 FILLER_12_453
*1099 FILLER_12_460
*1100 FILLER_12_467
*1101 FILLER_12_47
*1102 FILLER_12_474
*1103 FILLER_12_481
*1104 FILLER_12_488
*1105 FILLER_12_495
*1106 FILLER_12_502
*1107 FILLER_12_509
*1108 FILLER_12_516
*1109 FILLER_12_523
*1110 FILLER_12_530
*1111 FILLER_12_537
*1112 FILLER_12_54
*1113 FILLER_12_544
*1114 FILLER_12_551
*1115 FILLER_12_558
*1116 FILLER_12_565
*1117 FILLER_12_572
*1118 FILLER_12_579
*1119 FILLER_12_586
*1120 FILLER_12_593
*1121 FILLER_12_600
*1122 FILLER_12_607
*1123 FILLER_12_61
*1124 FILLER_12_614
*1125 FILLER_12_621
*1126 FILLER_12_628
*1127 FILLER_12_635
*1128 FILLER_12_642
*1129 FILLER_12_649
*1130 FILLER_12_656
*1131 FILLER_12_663
*1132 FILLER_12_670
*1133 FILLER_12_677
*1134 FILLER_12_68
*1135 FILLER_12_684
*1136 FILLER_12_691
*1137 FILLER_12_698
*1138 FILLER_12_705
*1139 FILLER_12_712
*1140 FILLER_12_719
*1141 FILLER_12_726
*1142 FILLER_12_733
*1143 FILLER_12_737
*1144 FILLER_12_75
*1145 FILLER_12_82
*1146 FILLER_12_89
*1147 FILLER_12_96
*1148 FILLER_13_10
*1149 FILLER_13_101
*1150 FILLER_13_108
*1151 FILLER_13_115
*1152 FILLER_13_122
*1153 FILLER_13_129
*1154 FILLER_13_136
*1155 FILLER_13_143
*1156 FILLER_13_150
*1157 FILLER_13_157
*1158 FILLER_13_164
*1159 FILLER_13_17
*1160 FILLER_13_171
*1161 FILLER_13_178
*1162 FILLER_13_185
*1163 FILLER_13_192
*1164 FILLER_13_199
*1165 FILLER_13_206
*1166 FILLER_13_213
*1167 FILLER_13_220
*1168 FILLER_13_227
*1169 FILLER_13_234
*1170 FILLER_13_24
*1171 FILLER_13_241
*1172 FILLER_13_248
*1173 FILLER_13_255
*1174 FILLER_13_262
*1175 FILLER_13_269
*1176 FILLER_13_276
*1177 FILLER_13_283
*1178 FILLER_13_290
*1179 FILLER_13_297
*1180 FILLER_13_304
*1181 FILLER_13_31
*1182 FILLER_13_311
*1183 FILLER_13_318
*1184 FILLER_13_325
*1185 FILLER_13_332
*1186 FILLER_13_339
*1187 FILLER_13_346
*1188 FILLER_13_353
*1189 FILLER_13_360
*1190 FILLER_13_367
*1191 FILLER_13_374
*1192 FILLER_13_38
*1193 FILLER_13_381
*1194 FILLER_13_388
*1195 FILLER_13_395
*1196 FILLER_13_4
*1197 FILLER_13_402
*1198 FILLER_13_409
*1199 FILLER_13_416
*1200 FILLER_13_423
*1201 FILLER_13_430
*1202 FILLER_13_437
*1203 FILLER_13_444
*1204 FILLER_13_45
*1205 FILLER_13_451
*1206 FILLER_13_458
*1207 FILLER_13_465
*1208 FILLER_13_472
*1209 FILLER_13_479
*1210 FILLER_13_486
*1211 FILLER_13_493
*1212 FILLER_13_500
*1213 FILLER_13_507
*1214 FILLER_13_514
*1215 FILLER_13_52
*1216 FILLER_13_521
*1217 FILLER_13_528
*1218 FILLER_13_535
*1219 FILLER_13_542
*1220 FILLER_13_549
*1221 FILLER_13_556
*1222 FILLER_13_563
*1223 FILLER_13_570
*1224 FILLER_13_577
*1225 FILLER_13_584
*1226 FILLER_13_59
*1227 FILLER_13_591
*1228 FILLER_13_598
*1229 FILLER_13_605
*1230 FILLER_13_612
*1231 FILLER_13_619
*1232 FILLER_13_626
*1233 FILLER_13_633
*1234 FILLER_13_640
*1235 FILLER_13_647
*1236 FILLER_13_654
*1237 FILLER_13_66
*1238 FILLER_13_661
*1239 FILLER_13_668
*1240 FILLER_13_675
*1241 FILLER_13_682
*1242 FILLER_13_689
*1243 FILLER_13_696
*1244 FILLER_13_703
*1245 FILLER_13_710
*1246 FILLER_13_717
*1247 FILLER_13_724
*1248 FILLER_13_73
*1249 FILLER_13_731
*1250 FILLER_13_738
*1251 FILLER_13_80
*1252 FILLER_13_87
*1253 FILLER_13_94
*1254 FILLER_14_102
*1255 FILLER_14_109
*1256 FILLER_14_11
*1257 FILLER_14_116