* NGSPICE file created from heichips25_pudding.ext - technology: ihp-sg13g2

* Black-box entry subcircuit for sg13g2_decap_8 abstract view
.subckt sg13g2_decap_8 VDD VSS
.ends

* Black-box entry subcircuit for sg13g2_inv_1 abstract view
.subckt sg13g2_inv_1 VDD Y A VSS
.ends

* Black-box entry subcircuit for sg13g2_fill_2 abstract view
.subckt sg13g2_fill_2 VDD VSS
.ends

* Black-box entry subcircuit for sg13g2_fill_1 abstract view
.subckt sg13g2_fill_1 VDD VSS
.ends

* Black-box entry subcircuit for sg13g2_buf_1 abstract view
.subckt sg13g2_buf_1 A X VDD VSS
.ends

* Black-box entry subcircuit for sg13g2_decap_4 abstract view
.subckt sg13g2_decap_4 VDD VSS
.ends

* Black-box entry subcircuit for sg13g2_buf_2 abstract view
.subckt sg13g2_buf_2 A X VDD VSS
.ends

* Black-box entry subcircuit for dac128module abstract view
.subckt dac128module ON[64] ONB[64] ON[65] ONB[65] ON[66] ONB[66] ON[67] ONB[67] ON[68]
+ ONB[68] ON[69] ONB[69] ON[70] ONB[70] ON[71] ONB[71] ON[72] ONB[72] EN[2] ENB[2]
+ ON[73] ONB[73] ON[74] ONB[74] ON[75] ONB[75] ON[76] ONB[76] ON[77] ONB[77] ON[78]
+ ONB[78] ON[79] ONB[79] ON[80] ONB[80] ON[81] ONB[81] ON[82] ONB[82] ON[83] ONB[83]
+ ON[84] ONB[84] ON[85] ONB[85] ON[86] ONB[86] ON[87] ONB[87] ON[88] ONB[88] ON[89]
+ ONB[89] ON[90] ONB[90] ON[91] ONB[91] ON[92] ONB[92] ON[93] ONB[93] ON[94] ONB[94]
+ ON[95] ONB[95] ON[96] ONB[96] ON[97] ONB[97] ON[98] ONB[98] ON[99] ONB[99] ON[100]
+ ONB[100] ON[101] ONB[101] ON[102] ONB[102] ON[103] ONB[103] ON[104] ONB[104] ON[105]
+ ONB[105] ON[106] ONB[106] ON[107] ONB[107] ON[108] ONB[108] ON[109] ONB[109] ON[110]
+ ONB[110] ON[111] ONB[111] ON[112] ONB[112] ON[113] ONB[113] ON[114] ONB[114] ON[115]
+ ONB[115] ON[116] ONB[116] ON[117] ONB[117] ON[118] ONB[118] ON[119] ONB[119] ON[120]
+ ONB[120] ON[121] ONB[121] ON[122] ONB[122] EN[3] ENB[3] ON[123] ONB[123] ON[124]
+ ONB[124] ON[125] ONB[125] ON[126] ONB[126] ON[127] ONB[127] ON[0] ONB[0] ON[1] ONB[1]
+ ON[2] ONB[2] ON[3] ONB[3] ON[4] ONB[4] ON[5] ONB[5] ON[6] EN[0] ENB[0] ONB[6] ON[7]
+ ONB[7] ON[8] ONB[8] ON[9] ONB[9] ON[10] ONB[10] ON[11] ONB[11] ON[12] ONB[12] ON[13]
+ ONB[13] ON[14] ONB[14] ON[15] ONB[15] ON[16] ONB[16] ON[17] ONB[17] ON[18] ONB[18]
+ ON[19] ONB[19] ON[20] ONB[20] ON[21] ONB[21] ON[22] ONB[22] ON[23] ONB[23] ON[24]
+ ONB[24] ON[25] ONB[25] ON[26] ONB[26] ON[27] ONB[27] ON[28] ONB[28] ON[29] ONB[29]
+ ON[30] ONB[30] ON[31] ONB[31] ON[33] ONB[33] ON[32] ONB[32] ON[34] ONB[34] ON[35]
+ ONB[35] ON[36] ONB[36] ON[37] ONB[37] ON[38] ONB[38] ON[39] ONB[39] ON[40] ONB[40]
+ ON[41] ONB[41] ON[42] ONB[42] ON[43] ONB[43] ON[44] ONB[44] ON[45] ONB[45] ON[46]
+ ONB[46] ON[47] ONB[47] ON[48] ONB[48] ON[49] ONB[49] ON[50] ONB[50] ON[51] ONB[51]
+ ON[52] ONB[52] ON[53] ONB[53] ON[54] ONB[54] ON[55] ONB[55] ON[56] ONB[56] ON[57]
+ ONB[57] ON[58] ONB[58] ON[59] ONB[59] ON[60] ONB[60] ON[61] ONB[61] ON[62] ONB[62]
+ ON[63] ONB[63] EN[1] ENB[1] VSS VDD
.ends

* Black-box entry subcircuit for sg13g2_tiehi abstract view
.subckt sg13g2_tiehi VDD VSS L_HI
.ends

.subckt heichips25_pudding VGND VPWR clk ena rst_n ui_in[0] ui_in[1] ui_in[2] ui_in[3]
+ ui_in[4] ui_in[5] ui_in[6] ui_in[7] uio_in[0] uio_in[1] uio_in[2] uio_in[3] uio_in[4]
+ uio_in[5] uio_in[6] uio_in[7] uio_oe[0] uio_oe[1] uio_oe[2] uio_oe[3] uio_oe[4]
+ uio_oe[5] uio_oe[6] uio_oe[7] uio_out[0] uio_out[1] uio_out[2] uio_out[3] uio_out[4]
+ uio_out[5] uio_out[6] uio_out[7] uo_out[0] uo_out[1] uo_out[2] uo_out[3] uo_out[4]
+ uo_out[5] uo_out[6] uo_out[7]
XFILLER_28_907 VPWR VGND sg13g2_decap_8
XFILLER_27_406 VPWR VGND sg13g2_decap_8
XFILLER_39_266 VPWR VGND sg13g2_decap_8
XFILLER_35_483 VPWR VGND sg13g2_decap_8
XFILLER_23_634 VPWR VGND sg13g2_decap_8
XFILLER_22_144 VPWR VGND sg13g2_decap_8
XFILLER_10_339 VPWR VGND sg13g2_decap_8
XdigitalenH.g\[2\].u.inv VPWR digitalenH.g\[2\].u.OUTN net4 VGND sg13g2_inv_1
XFILLER_19_907 VPWR VGND sg13g2_fill_2
XFILLER_45_203 VPWR VGND sg13g2_decap_8
XFILLER_27_973 VPWR VGND sg13g2_decap_8
XFILLER_26_74 VPWR VGND sg13g2_decap_8
XFILLER_42_954 VPWR VGND sg13g2_fill_1
XFILLER_13_122 VPWR VGND sg13g2_decap_8
XFILLER_14_634 VPWR VGND sg13g2_decap_8
XFILLER_26_494 VPWR VGND sg13g2_decap_8
XFILLER_41_420 VPWR VGND sg13g2_decap_8
XFILLER_13_199 VPWR VGND sg13g2_decap_8
XFILLER_9_137 VPWR VGND sg13g2_decap_8
XFILLER_41_497 VPWR VGND sg13g2_decap_8
XFILLER_42_84 VPWR VGND sg13g2_decap_8
XFILLER_5_354 VPWR VGND sg13g2_decap_8
XFILLER_1_560 VPWR VGND sg13g2_decap_8
XdigitalL.g\[50\].u.inv VPWR digitalL.g\[50\].u.OUTN net99 VGND sg13g2_inv_1
XFILLER_3_67 VPWR VGND sg13g2_decap_8
XFILLER_49_553 VPWR VGND sg13g2_decap_8
XFILLER_36_203 VPWR VGND sg13g2_decap_8
XFILLER_18_940 VPWR VGND sg13g2_fill_2
XFILLER_45_770 VPWR VGND sg13g2_decap_8
XFILLER_18_995 VPWR VGND sg13g2_fill_1
XFILLER_44_280 VPWR VGND sg13g2_decap_8
XFILLER_32_453 VPWR VGND sg13g2_decap_8
XFILLER_20_648 VPWR VGND sg13g2_decap_8
XFILLER_8_181 VPWR VGND sg13g2_decap_8
Xfanout105 net106 net105 VPWR VGND sg13g2_buf_1
XdigitalL.g\[78\].u.buff net104 digitalL.g\[78\].u.OUTP VPWR VGND sg13g2_buf_1
XFILLER_28_704 VPWR VGND sg13g2_decap_8
XdigitalH.g\[95\].u.inv VPWR digitalH.g\[95\].u.OUTN net42 VGND sg13g2_inv_1
XFILLER_27_203 VPWR VGND sg13g2_decap_8
XFILLER_43_707 VPWR VGND sg13g2_decap_8
XFILLER_15_409 VPWR VGND sg13g2_decap_8
XFILLER_24_921 VPWR VGND sg13g2_decap_8
XFILLER_42_217 VPWR VGND sg13g2_decap_8
XFILLER_23_431 VPWR VGND sg13g2_decap_8
XFILLER_35_280 VPWR VGND sg13g2_decap_8
XFILLER_24_998 VPWR VGND sg13g2_decap_8
XFILLER_11_648 VPWR VGND sg13g2_decap_8
XFILLER_10_136 VPWR VGND sg13g2_decap_8
XFILLER_12_54 VPWR VGND sg13g2_decap_8
XFILLER_3_858 VPWR VGND sg13g2_decap_8
XFILLER_2_368 VPWR VGND sg13g2_decap_8
XFILLER_19_704 VPWR VGND sg13g2_decap_8
XFILLER_46_567 VPWR VGND sg13g2_decap_8
XFILLER_18_247 VPWR VGND sg13g2_decap_8
XFILLER_34_707 VPWR VGND sg13g2_decap_8
XFILLER_37_84 VPWR VGND sg13g2_decap_8
XFILLER_27_770 VPWR VGND sg13g2_decap_8
XFILLER_33_217 VPWR VGND sg13g2_decap_8
XFILLER_34_718 VPWR VGND sg13g2_fill_2
XFILLER_14_431 VPWR VGND sg13g2_decap_8
XFILLER_26_291 VPWR VGND sg13g2_decap_8
XdigitalH.g\[106\].u.inv VPWR digitalH.g\[106\].u.OUTN net39 VGND sg13g2_inv_1
XFILLER_41_294 VPWR VGND sg13g2_decap_8
XFILLER_6_641 VPWR VGND sg13g2_decap_8
XFILLER_5_151 VPWR VGND sg13g2_decap_8
XFILLER_25_1019 VPWR VGND sg13g2_decap_8
XFILLER_49_350 VPWR VGND sg13g2_decap_8
XFILLER_37_567 VPWR VGND sg13g2_decap_8
XFILLER_18_781 VPWR VGND sg13g2_fill_2
XFILLER_25_718 VPWR VGND sg13g2_decap_8
XFILLER_24_228 VPWR VGND sg13g2_decap_8
XFILLER_32_250 VPWR VGND sg13g2_decap_8
XFILLER_21_935 VPWR VGND sg13g2_decap_8
XFILLER_20_445 VPWR VGND sg13g2_decap_8
XFILLER_28_501 VPWR VGND sg13g2_decap_8
XdigitalH.g\[69\].u.buff net61 digitalH.g\[69\].u.OUTP VPWR VGND sg13g2_buf_1
XFILLER_16_707 VPWR VGND sg13g2_decap_8
XFILLER_43_504 VPWR VGND sg13g2_decap_8
XFILLER_15_206 VPWR VGND sg13g2_decap_8
XFILLER_28_578 VPWR VGND sg13g2_decap_8
XFILLER_24_795 VPWR VGND sg13g2_decap_8
XFILLER_11_445 VPWR VGND sg13g2_decap_8
XFILLER_23_53 VPWR VGND sg13g2_decap_8
XFILLER_7_449 VPWR VGND sg13g2_decap_8
XFILLER_48_1008 VPWR VGND sg13g2_decap_8
XFILLER_3_655 VPWR VGND sg13g2_decap_8
XFILLER_2_165 VPWR VGND sg13g2_decap_8
XFILLER_19_501 VPWR VGND sg13g2_decap_8
XFILLER_47_854 VPWR VGND sg13g2_decap_8
XFILLER_0_35 VPWR VGND sg13g2_decap_8
XFILLER_46_364 VPWR VGND sg13g2_decap_8
XFILLER_19_578 VPWR VGND sg13g2_decap_8
XFILLER_34_504 VPWR VGND sg13g2_decap_8
XFILLER_9_11 VPWR VGND sg13g2_decap_8
XFILLER_42_581 VPWR VGND sg13g2_decap_8
XFILLER_9_88 VPWR VGND sg13g2_decap_8
XFILLER_30_754 VPWR VGND sg13g2_decap_8
XdigitalH.g\[43\].u.inv VPWR digitalH.g\[43\].u.OUTN net48 VGND sg13g2_inv_1
XFILLER_25_515 VPWR VGND sg13g2_decap_8
XFILLER_37_364 VPWR VGND sg13g2_decap_8
XFILLER_40_518 VPWR VGND sg13g2_decap_8
XFILLER_21_732 VPWR VGND sg13g2_decap_8
XFILLER_33_581 VPWR VGND sg13g2_decap_8
XFILLER_20_242 VPWR VGND sg13g2_decap_8
XdigitalL.g\[93\].u.buff net94 digitalL.g\[93\].u.OUTP VPWR VGND sg13g2_buf_1
XdigitalL.g\[22\].u.buff net78 digitalL.g\[22\].u.OUTP VPWR VGND sg13g2_buf_1
XFILLER_0_658 VPWR VGND sg13g2_decap_8
XdigitalL.g\[97\].u.inv VPWR digitalL.g\[97\].u.OUTN net86 VGND sg13g2_inv_1
XFILLER_29_810 VPWR VGND sg13g2_decap_8
XFILLER_43_301 VPWR VGND sg13g2_decap_8
XFILLER_18_86 VPWR VGND sg13g2_decap_8
XFILLER_16_504 VPWR VGND sg13g2_decap_8
XFILLER_28_375 VPWR VGND sg13g2_decap_8
XFILLER_29_887 VPWR VGND sg13g2_decap_8
XdigitalH.g\[116\].u.buff net36 digitalH.g\[116\].u.OUTP VPWR VGND sg13g2_buf_1
XFILLER_44_868 VPWR VGND sg13g2_decap_8
XFILLER_43_378 VPWR VGND sg13g2_decap_8
XFILLER_34_63 VPWR VGND sg13g2_decap_8
XFILLER_24_592 VPWR VGND sg13g2_decap_8
XFILLER_11_242 VPWR VGND sg13g2_decap_8
XFILLER_7_246 VPWR VGND sg13g2_decap_8
XFILLER_4_953 VPWR VGND sg13g2_decap_8
XFILLER_3_452 VPWR VGND sg13g2_decap_8
XFILLER_47_651 VPWR VGND sg13g2_decap_8
XFILLER_19_375 VPWR VGND sg13g2_decap_8
XFILLER_34_301 VPWR VGND sg13g2_decap_8
XFILLER_46_161 VPWR VGND sg13g2_decap_8
XFILLER_15_570 VPWR VGND sg13g2_decap_8
XFILLER_22_529 VPWR VGND sg13g2_decap_8
XFILLER_34_378 VPWR VGND sg13g2_decap_8
XFILLER_30_551 VPWR VGND sg13g2_decap_8
XFILLER_29_117 VPWR VGND sg13g2_decap_8
XFILLER_26_802 VPWR VGND sg13g2_decap_8
XFILLER_38_651 VPWR VGND sg13g2_decap_8
XFILLER_25_312 VPWR VGND sg13g2_decap_8
XFILLER_37_161 VPWR VGND sg13g2_decap_8
XFILLER_13_507 VPWR VGND sg13g2_decap_8
XFILLER_26_879 VPWR VGND sg13g2_decap_8
XFILLER_25_389 VPWR VGND sg13g2_decap_8
XFILLER_40_315 VPWR VGND sg13g2_decap_8
XFILLER_5_739 VPWR VGND sg13g2_decap_8
XFILLER_20_32 VPWR VGND sg13g2_decap_8
XdigitalL.g\[106\].u.buff net83 digitalL.g\[106\].u.OUTP VPWR VGND sg13g2_buf_1
XFILLER_1_945 VPWR VGND sg13g2_decap_8
XdigitalH.g\[84\].u.buff net56 digitalH.g\[84\].u.OUTP VPWR VGND sg13g2_buf_1
XFILLER_0_455 VPWR VGND sg13g2_decap_8
XFILLER_49_938 VPWR VGND sg13g2_decap_8
XdigitalH.g\[13\].u.buff net26 digitalH.g\[13\].u.OUTP VPWR VGND sg13g2_buf_1
XFILLER_48_448 VPWR VGND sg13g2_decap_8
XFILLER_29_96 VPWR VGND sg13g2_decap_8
XFILLER_16_301 VPWR VGND sg13g2_decap_8
XFILLER_28_172 VPWR VGND sg13g2_decap_8
XFILLER_29_684 VPWR VGND sg13g2_decap_8
XFILLER_44_665 VPWR VGND sg13g2_decap_8
XFILLER_16_378 VPWR VGND sg13g2_decap_8
XFILLER_43_175 VPWR VGND sg13g2_decap_8
XFILLER_45_84 VPWR VGND sg13g2_decap_8
XFILLER_31_348 VPWR VGND sg13g2_decap_8
XFILLER_12_551 VPWR VGND sg13g2_decap_8
XFILLER_8_566 VPWR VGND sg13g2_decap_8
XFILLER_6_67 VPWR VGND sg13g2_decap_8
XFILLER_4_750 VPWR VGND sg13g2_decap_8
XFILLER_20_4 VPWR VGND sg13g2_decap_8
XFILLER_39_448 VPWR VGND sg13g2_decap_8
XFILLER_26_109 VPWR VGND sg13g2_decap_8
XFILLER_19_172 VPWR VGND sg13g2_decap_8
XFILLER_35_665 VPWR VGND sg13g2_decap_8
XFILLER_23_816 VPWR VGND sg13g2_decap_8
XFILLER_34_175 VPWR VGND sg13g2_decap_8
XFILLER_22_326 VPWR VGND sg13g2_decap_8
XdigitalL.g\[45\].u.inv VPWR digitalL.g\[45\].u.OUTN net92 VGND sg13g2_inv_1
XFILLER_13_304 VPWR VGND sg13g2_decap_8
XFILLER_15_10 VPWR VGND sg13g2_decap_8
XFILLER_26_676 VPWR VGND sg13g2_decap_8
XFILLER_41_602 VPWR VGND sg13g2_decap_8
XFILLER_25_186 VPWR VGND sg13g2_decap_8
XFILLER_40_112 VPWR VGND sg13g2_decap_8
XFILLER_9_319 VPWR VGND sg13g2_decap_8
XFILLER_15_87 VPWR VGND sg13g2_decap_8
XFILLER_41_679 VPWR VGND sg13g2_decap_8
XFILLER_22_893 VPWR VGND sg13g2_decap_8
XFILLER_40_189 VPWR VGND sg13g2_decap_8
XFILLER_5_536 VPWR VGND sg13g2_decap_8
XFILLER_31_75 VPWR VGND sg13g2_decap_8
Xoutput7 net7 uio_out[2] VPWR VGND sg13g2_buf_1
Xoutput20 net20 uo_out[7] VPWR VGND sg13g2_buf_1
XFILLER_1_742 VPWR VGND sg13g2_decap_8
XFILLER_0_252 VPWR VGND sg13g2_decap_8
XFILLER_49_735 VPWR VGND sg13g2_decap_8
XFILLER_48_245 VPWR VGND sg13g2_decap_8
XFILLER_17_610 VPWR VGND sg13g2_decap_8
XFILLER_29_481 VPWR VGND sg13g2_decap_8
XFILLER_45_952 VPWR VGND sg13g2_decap_8
XFILLER_44_462 VPWR VGND sg13g2_decap_8
XFILLER_16_175 VPWR VGND sg13g2_decap_8
XFILLER_17_687 VPWR VGND sg13g2_decap_8
XFILLER_32_635 VPWR VGND sg13g2_decap_8
XFILLER_20_808 VPWR VGND sg13g2_decap_8
XFILLER_31_145 VPWR VGND sg13g2_decap_8
XFILLER_8_363 VPWR VGND sg13g2_decap_8
XFILLER_28_1028 VPWR VGND sg13g2_fill_1
XFILLER_39_245 VPWR VGND sg13g2_decap_8
XFILLER_23_613 VPWR VGND sg13g2_decap_8
XFILLER_35_462 VPWR VGND sg13g2_decap_8
XFILLER_22_123 VPWR VGND sg13g2_decap_8
XFILLER_10_318 VPWR VGND sg13g2_decap_8
XdigitalH.g\[91\].u.inv VPWR digitalH.g\[91\].u.OUTN net54 VGND sg13g2_inv_1
XFILLER_46_749 VPWR VGND sg13g2_decap_8
XFILLER_18_429 VPWR VGND sg13g2_decap_8
XFILLER_27_952 VPWR VGND sg13g2_decap_8
XFILLER_45_259 VPWR VGND sg13g2_decap_8
XFILLER_14_613 VPWR VGND sg13g2_decap_8
XFILLER_26_53 VPWR VGND sg13g2_decap_8
XFILLER_26_473 VPWR VGND sg13g2_decap_8
XFILLER_13_101 VPWR VGND sg13g2_decap_8
XFILLER_42_999 VPWR VGND sg13g2_fill_2
XFILLER_9_116 VPWR VGND sg13g2_decap_8
XFILLER_41_476 VPWR VGND sg13g2_decap_8
XFILLER_13_178 VPWR VGND sg13g2_decap_8
XdigitalL.g\[121\].u.buff net73 digitalL.g\[121\].u.OUTP VPWR VGND sg13g2_buf_1
XFILLER_22_690 VPWR VGND sg13g2_decap_8
XFILLER_42_63 VPWR VGND sg13g2_decap_8
XFILLER_6_834 VPWR VGND sg13g2_fill_2
XFILLER_6_823 VPWR VGND sg13g2_decap_8
XFILLER_5_333 VPWR VGND sg13g2_decap_8
XdigitalH.g\[102\].u.inv VPWR digitalH.g\[102\].u.OUTN net40 VGND sg13g2_inv_1
XFILLER_3_46 VPWR VGND sg13g2_decap_8
XFILLER_49_532 VPWR VGND sg13g2_decap_8
XFILLER_3_1019 VPWR VGND sg13g2_decap_8
XFILLER_18_952 VPWR VGND sg13g2_fill_1
XFILLER_36_259 VPWR VGND sg13g2_decap_8
XFILLER_18_974 VPWR VGND sg13g2_fill_1
XFILLER_17_484 VPWR VGND sg13g2_decap_8
XFILLER_32_432 VPWR VGND sg13g2_decap_8
XFILLER_20_627 VPWR VGND sg13g2_decap_8
XFILLER_8_160 VPWR VGND sg13g2_decap_8
XFILLER_9_683 VPWR VGND sg13g2_decap_8
Xfanout106 net110 net106 VPWR VGND sg13g2_buf_1
XdigitalH.g\[38\].u.inv VPWR digitalH.g\[38\].u.OUTN net46 VGND sg13g2_inv_1
XFILLER_27_259 VPWR VGND sg13g2_decap_8
XdigitalL.g\[47\].u.buff net92 digitalL.g\[47\].u.OUTP VPWR VGND sg13g2_buf_1
XFILLER_24_900 VPWR VGND sg13g2_decap_8
XFILLER_23_410 VPWR VGND sg13g2_decap_8
XFILLER_24_977 VPWR VGND sg13g2_decap_8
XFILLER_10_115 VPWR VGND sg13g2_decap_8
XFILLER_11_627 VPWR VGND sg13g2_decap_8
XFILLER_23_487 VPWR VGND sg13g2_decap_8
XFILLER_12_33 VPWR VGND sg13g2_decap_8
XFILLER_3_837 VPWR VGND sg13g2_decap_8
XFILLER_2_347 VPWR VGND sg13g2_decap_8
XFILLER_46_546 VPWR VGND sg13g2_decap_8
XFILLER_18_226 VPWR VGND sg13g2_decap_8
XFILLER_37_63 VPWR VGND sg13g2_decap_8
XFILLER_42_741 VPWR VGND sg13g2_decap_4
XFILLER_14_410 VPWR VGND sg13g2_decap_8
XFILLER_26_270 VPWR VGND sg13g2_decap_8
XFILLER_18_1016 VPWR VGND sg13g2_fill_1
XFILLER_14_487 VPWR VGND sg13g2_decap_8
XFILLER_41_273 VPWR VGND sg13g2_decap_8
XFILLER_30_958 VPWR VGND sg13g2_decap_8
XFILLER_6_620 VPWR VGND sg13g2_decap_8
XFILLER_5_130 VPWR VGND sg13g2_decap_8
XFILLER_10_682 VPWR VGND sg13g2_decap_8
XFILLER_6_697 VPWR VGND sg13g2_decap_8
XFILLER_37_546 VPWR VGND sg13g2_decap_8
XFILLER_24_207 VPWR VGND sg13g2_decap_8
XFILLER_17_281 VPWR VGND sg13g2_decap_8
XFILLER_21_914 VPWR VGND sg13g2_decap_8
XFILLER_20_424 VPWR VGND sg13g2_decap_8
XFILLER_9_480 VPWR VGND sg13g2_decap_8
XFILLER_28_557 VPWR VGND sg13g2_decap_8
XFILLER_11_424 VPWR VGND sg13g2_decap_8
XFILLER_24_774 VPWR VGND sg13g2_decap_8
XdigitalH.g\[38\].u.buff net45 digitalH.g\[38\].u.OUTP VPWR VGND sg13g2_buf_1
XdigitalL.g\[93\].u.inv VPWR digitalL.g\[93\].u.OUTN net94 VGND sg13g2_inv_1
XFILLER_23_32 VPWR VGND sg13g2_decap_8
XFILLER_23_284 VPWR VGND sg13g2_decap_8
XFILLER_7_428 VPWR VGND sg13g2_decap_8
XFILLER_3_634 VPWR VGND sg13g2_decap_8
XFILLER_2_144 VPWR VGND sg13g2_decap_8
XFILLER_47_833 VPWR VGND sg13g2_decap_8
XFILLER_48_84 VPWR VGND sg13g2_decap_8
XFILLER_46_343 VPWR VGND sg13g2_decap_8
XFILLER_0_14 VPWR VGND sg13g2_decap_8
XFILLER_19_557 VPWR VGND sg13g2_decap_8
XFILLER_15_730 VPWR VGND sg13g2_fill_1
XFILLER_42_560 VPWR VGND sg13g2_decap_8
XFILLER_9_67 VPWR VGND sg13g2_decap_8
XFILLER_14_284 VPWR VGND sg13g2_decap_8
XFILLER_30_733 VPWR VGND sg13g2_decap_8
XFILLER_6_494 VPWR VGND sg13g2_decap_8
XFILLER_37_343 VPWR VGND sg13g2_decap_8
XFILLER_18_590 VPWR VGND sg13g2_decap_8
XFILLER_21_711 VPWR VGND sg13g2_decap_8
XFILLER_33_560 VPWR VGND sg13g2_decap_8
XFILLER_20_221 VPWR VGND sg13g2_decap_8
XFILLER_21_788 VPWR VGND sg13g2_decap_8
XFILLER_20_298 VPWR VGND sg13g2_decap_8
XFILLER_0_637 VPWR VGND sg13g2_decap_8
XdigitalL.g\[62\].u.buff net102 digitalL.g\[62\].u.OUTP VPWR VGND sg13g2_buf_1
XFILLER_18_65 VPWR VGND sg13g2_decap_8
XFILLER_28_354 VPWR VGND sg13g2_decap_8
XFILLER_29_866 VPWR VGND sg13g2_decap_8
XFILLER_44_847 VPWR VGND sg13g2_decap_8
XFILLER_43_357 VPWR VGND sg13g2_decap_8
XFILLER_24_571 VPWR VGND sg13g2_decap_8
XFILLER_34_42 VPWR VGND sg13g2_decap_8
XFILLER_11_221 VPWR VGND sg13g2_decap_8
XFILLER_12_733 VPWR VGND sg13g2_decap_4
XFILLER_11_298 VPWR VGND sg13g2_decap_8
XFILLER_7_225 VPWR VGND sg13g2_decap_8
XFILLER_4_932 VPWR VGND sg13g2_decap_8
XFILLER_3_431 VPWR VGND sg13g2_decap_8
XFILLER_47_630 VPWR VGND sg13g2_decap_8
XFILLER_19_354 VPWR VGND sg13g2_decap_8
XFILLER_46_140 VPWR VGND sg13g2_decap_8
XFILLER_22_508 VPWR VGND sg13g2_decap_8
XFILLER_34_357 VPWR VGND sg13g2_decap_8
XFILLER_30_530 VPWR VGND sg13g2_decap_8
XFILLER_6_291 VPWR VGND sg13g2_decap_8
XFILLER_41_0 VPWR VGND sg13g2_decap_8
XdigitalL.g\[41\].u.inv VPWR digitalL.g\[41\].u.OUTN net91 VGND sg13g2_inv_1
XFILLER_38_630 VPWR VGND sg13g2_decap_8
XFILLER_37_140 VPWR VGND sg13g2_decap_8
XFILLER_26_858 VPWR VGND sg13g2_decap_8
XFILLER_25_368 VPWR VGND sg13g2_decap_8
XFILLER_21_585 VPWR VGND sg13g2_decap_8
XFILLER_5_718 VPWR VGND sg13g2_decap_8
XFILLER_4_239 VPWR VGND sg13g2_decap_8
XFILLER_20_11 VPWR VGND sg13g2_decap_8
XFILLER_1_924 VPWR VGND sg13g2_decap_8
XFILLER_20_88 VPWR VGND sg13g2_decap_8
XFILLER_49_917 VPWR VGND sg13g2_decap_8
XFILLER_0_434 VPWR VGND sg13g2_decap_8
XFILLER_48_427 VPWR VGND sg13g2_decap_8
XFILLER_29_75 VPWR VGND sg13g2_decap_8
XdigitalH.g\[86\].u.inv VPWR digitalH.g\[86\].u.OUTN net55 VGND sg13g2_inv_1
XFILLER_21_1012 VPWR VGND sg13g2_decap_8
XFILLER_29_663 VPWR VGND sg13g2_decap_8
XFILLER_28_151 VPWR VGND sg13g2_decap_8
XdigitalH.g\[53\].u.buff net49 digitalH.g\[53\].u.OUTP VPWR VGND sg13g2_buf_1
XFILLER_44_644 VPWR VGND sg13g2_decap_8
XFILLER_16_357 VPWR VGND sg13g2_decap_8
XFILLER_45_63 VPWR VGND sg13g2_decap_8
XFILLER_43_154 VPWR VGND sg13g2_decap_8
XFILLER_12_530 VPWR VGND sg13g2_decap_8
XFILLER_31_327 VPWR VGND sg13g2_decap_8
XFILLER_8_545 VPWR VGND sg13g2_decap_8
XFILLER_6_46 VPWR VGND sg13g2_decap_8
XFILLER_6_1028 VPWR VGND sg13g2_fill_1
XFILLER_6_1017 VPWR VGND sg13g2_decap_8
XFILLER_13_4 VPWR VGND sg13g2_fill_2
XFILLER_39_427 VPWR VGND sg13g2_decap_8
XFILLER_48_994 VPWR VGND sg13g2_decap_8
XFILLER_19_151 VPWR VGND sg13g2_decap_8
XFILLER_35_644 VPWR VGND sg13g2_decap_8
XFILLER_22_305 VPWR VGND sg13g2_decap_8
XFILLER_34_154 VPWR VGND sg13g2_decap_8
XFILLER_31_894 VPWR VGND sg13g2_fill_1
XFILLER_44_1012 VPWR VGND sg13g2_decap_8
XdigitalenH.g\[0\].u.buff net4 digitalenH.g\[0\].u.OUTP VPWR VGND sg13g2_buf_1
XFILLER_26_655 VPWR VGND sg13g2_decap_8
XFILLER_25_165 VPWR VGND sg13g2_decap_8
XFILLER_15_66 VPWR VGND sg13g2_decap_8
XFILLER_41_658 VPWR VGND sg13g2_decap_8
XFILLER_22_872 VPWR VGND sg13g2_decap_8
XFILLER_40_168 VPWR VGND sg13g2_decap_8
XFILLER_21_382 VPWR VGND sg13g2_decap_8
XFILLER_5_515 VPWR VGND sg13g2_decap_8
XFILLER_31_54 VPWR VGND sg13g2_decap_8
Xoutput8 net8 uio_out[3] VPWR VGND sg13g2_buf_1
Xoutput10 net10 uio_out[5] VPWR VGND sg13g2_buf_1
XFILLER_1_721 VPWR VGND sg13g2_decap_8
XFILLER_49_714 VPWR VGND sg13g2_decap_8
XFILLER_0_231 VPWR VGND sg13g2_decap_8
XFILLER_48_224 VPWR VGND sg13g2_decap_8
XFILLER_1_798 VPWR VGND sg13g2_decap_8
XFILLER_45_931 VPWR VGND sg13g2_decap_8
XFILLER_29_460 VPWR VGND sg13g2_decap_8
XdigitalH.g\[1\].u.buff net21 digitalH.g\[1\].u.OUTP VPWR VGND sg13g2_buf_1
XFILLER_44_441 VPWR VGND sg13g2_decap_8
XdigitalH.g\[100\].u.buff net41 digitalH.g\[100\].u.OUTP VPWR VGND sg13g2_buf_1
XFILLER_16_154 VPWR VGND sg13g2_decap_8
XFILLER_17_666 VPWR VGND sg13g2_decap_8
XFILLER_32_614 VPWR VGND sg13g2_decap_8
XFILLER_31_124 VPWR VGND sg13g2_decap_8
XFILLER_8_342 VPWR VGND sg13g2_decap_8
XFILLER_39_224 VPWR VGND sg13g2_decap_8
XFILLER_48_791 VPWR VGND sg13g2_decap_8
XFILLER_35_441 VPWR VGND sg13g2_decap_8
XFILLER_22_102 VPWR VGND sg13g2_decap_8
XFILLER_23_669 VPWR VGND sg13g2_decap_8
XFILLER_22_179 VPWR VGND sg13g2_decap_8
XFILLER_31_691 VPWR VGND sg13g2_decap_8
XdigitalH.g\[34\].u.inv VPWR digitalH.g\[34\].u.OUTN net46 VGND sg13g2_inv_1
XFILLER_2_529 VPWR VGND sg13g2_decap_8
XFILLER_18_408 VPWR VGND sg13g2_decap_8
XFILLER_46_728 VPWR VGND sg13g2_decap_8
XFILLER_26_32 VPWR VGND sg13g2_decap_8
XFILLER_27_931 VPWR VGND sg13g2_decap_8
XFILLER_45_238 VPWR VGND sg13g2_decap_8
XFILLER_26_452 VPWR VGND sg13g2_decap_8
XFILLER_13_157 VPWR VGND sg13g2_decap_8
XFILLER_14_669 VPWR VGND sg13g2_decap_8
XFILLER_41_455 VPWR VGND sg13g2_decap_8
XFILLER_42_42 VPWR VGND sg13g2_decap_8
XFILLER_6_802 VPWR VGND sg13g2_decap_8
XFILLER_5_312 VPWR VGND sg13g2_decap_8
XFILLER_6_879 VPWR VGND sg13g2_decap_8
XFILLER_5_389 VPWR VGND sg13g2_decap_8
XFILLER_3_25 VPWR VGND sg13g2_decap_8
XFILLER_49_511 VPWR VGND sg13g2_decap_8
XFILLER_1_595 VPWR VGND sg13g2_decap_8
XdigitalL.g\[88\].u.inv VPWR digitalL.g\[88\].u.OUTN net95 VGND sg13g2_inv_1
XFILLER_49_588 VPWR VGND sg13g2_decap_8
XFILLER_37_728 VPWR VGND sg13g2_decap_8
XFILLER_36_238 VPWR VGND sg13g2_decap_8
XFILLER_17_463 VPWR VGND sg13g2_decap_8
XFILLER_18_986 VPWR VGND sg13g2_fill_1
XFILLER_32_411 VPWR VGND sg13g2_decap_8
XFILLER_20_606 VPWR VGND sg13g2_decap_8
XFILLER_32_488 VPWR VGND sg13g2_decap_8
XFILLER_9_662 VPWR VGND sg13g2_decap_8
Xfanout107 net109 net107 VPWR VGND sg13g2_buf_1
XFILLER_28_739 VPWR VGND sg13g2_decap_8
XFILLER_27_238 VPWR VGND sg13g2_decap_8
XFILLER_24_956 VPWR VGND sg13g2_decap_8
XFILLER_11_606 VPWR VGND sg13g2_decap_8
XFILLER_23_466 VPWR VGND sg13g2_decap_8
XdigitalL.g\[87\].u.buff net95 digitalL.g\[87\].u.OUTP VPWR VGND sg13g2_buf_1
XFILLER_12_12 VPWR VGND sg13g2_decap_8
XdigitalL.g\[16\].u.buff net71 digitalL.g\[16\].u.OUTP VPWR VGND sg13g2_buf_1
XFILLER_6_109 VPWR VGND sg13g2_decap_8
XFILLER_12_89 VPWR VGND sg13g2_decap_8
XFILLER_3_816 VPWR VGND sg13g2_decap_8
XFILLER_2_326 VPWR VGND sg13g2_decap_8
XFILLER_46_525 VPWR VGND sg13g2_decap_8
XFILLER_18_205 VPWR VGND sg13g2_decap_8
XFILLER_19_739 VPWR VGND sg13g2_decap_8
XFILLER_37_42 VPWR VGND sg13g2_decap_8
XFILLER_18_1028 VPWR VGND sg13g2_fill_1
XFILLER_14_466 VPWR VGND sg13g2_decap_8
XFILLER_30_937 VPWR VGND sg13g2_decap_8
XFILLER_30_948 VPWR VGND sg13g2_decap_8
XFILLER_41_252 VPWR VGND sg13g2_decap_8
XFILLER_10_661 VPWR VGND sg13g2_decap_8
XFILLER_6_676 VPWR VGND sg13g2_decap_8
XFILLER_5_186 VPWR VGND sg13g2_decap_8
XFILLER_45_7 VPWR VGND sg13g2_decap_8
XFILLER_2_893 VPWR VGND sg13g2_decap_8
XFILLER_1_392 VPWR VGND sg13g2_decap_8
XFILLER_37_525 VPWR VGND sg13g2_decap_8
XFILLER_49_385 VPWR VGND sg13g2_decap_8
XFILLER_17_260 VPWR VGND sg13g2_decap_8
XFILLER_18_794 VPWR VGND sg13g2_fill_1
XFILLER_20_403 VPWR VGND sg13g2_decap_8
XFILLER_32_285 VPWR VGND sg13g2_decap_8
XFILLER_0_819 VPWR VGND sg13g2_decap_8
XFILLER_28_536 VPWR VGND sg13g2_decap_8
XFILLER_43_539 VPWR VGND sg13g2_decap_8
XFILLER_24_753 VPWR VGND sg13g2_decap_8
XFILLER_11_403 VPWR VGND sg13g2_decap_8
XFILLER_23_11 VPWR VGND sg13g2_decap_8
XFILLER_23_263 VPWR VGND sg13g2_decap_8
XdigitalL.g\[36\].u.inv VPWR digitalL.g\[36\].u.OUTN net89 VGND sg13g2_inv_1
XdigitalH.g\[78\].u.buff net59 digitalH.g\[78\].u.OUTP VPWR VGND sg13g2_buf_1
XFILLER_7_407 VPWR VGND sg13g2_decap_8
XFILLER_23_88 VPWR VGND sg13g2_decap_8
XFILLER_3_613 VPWR VGND sg13g2_decap_8
XFILLER_2_123 VPWR VGND sg13g2_decap_8
XFILLER_47_812 VPWR VGND sg13g2_decap_8
XFILLER_48_63 VPWR VGND sg13g2_decap_8
XFILLER_46_322 VPWR VGND sg13g2_decap_8
XFILLER_19_536 VPWR VGND sg13g2_decap_8
XFILLER_47_889 VPWR VGND sg13g2_decap_8
XFILLER_46_399 VPWR VGND sg13g2_decap_8
XFILLER_34_539 VPWR VGND sg13g2_decap_8
XFILLER_14_263 VPWR VGND sg13g2_decap_8
XFILLER_30_712 VPWR VGND sg13g2_decap_8
XFILLER_9_46 VPWR VGND sg13g2_decap_8
XFILLER_30_789 VPWR VGND sg13g2_decap_8
XFILLER_6_473 VPWR VGND sg13g2_decap_8
XFILLER_2_690 VPWR VGND sg13g2_decap_8
XFILLER_49_182 VPWR VGND sg13g2_decap_8
XFILLER_37_322 VPWR VGND sg13g2_decap_8
XFILLER_37_399 VPWR VGND sg13g2_decap_8
XFILLER_20_200 VPWR VGND sg13g2_decap_8
XFILLER_21_767 VPWR VGND sg13g2_decap_8
XFILLER_20_277 VPWR VGND sg13g2_decap_8
XFILLER_0_616 VPWR VGND sg13g2_decap_8
XFILLER_48_609 VPWR VGND sg13g2_decap_8
XFILLER_47_119 VPWR VGND sg13g2_decap_8
XFILLER_18_44 VPWR VGND sg13g2_decap_8
XFILLER_28_333 VPWR VGND sg13g2_decap_8
XFILLER_29_845 VPWR VGND sg13g2_decap_8
XdigitalenL.g\[1\].u.inv VPWR digitalenL.g\[1\].u.OUTN net3 VGND sg13g2_inv_1
XFILLER_44_826 VPWR VGND sg13g2_decap_8
XFILLER_16_539 VPWR VGND sg13g2_decap_8
XFILLER_43_336 VPWR VGND sg13g2_decap_8
XdigitalL.g\[31\].u.buff net81 digitalL.g\[31\].u.OUTP VPWR VGND sg13g2_buf_1
XFILLER_34_21 VPWR VGND sg13g2_decap_8
XFILLER_12_712 VPWR VGND sg13g2_decap_8
XFILLER_24_550 VPWR VGND sg13g2_decap_8
XFILLER_31_509 VPWR VGND sg13g2_decap_8
XFILLER_11_200 VPWR VGND sg13g2_decap_8
XFILLER_34_98 VPWR VGND sg13g2_decap_8
XFILLER_7_204 VPWR VGND sg13g2_decap_8
XFILLER_8_727 VPWR VGND sg13g2_decap_8
XFILLER_11_277 VPWR VGND sg13g2_decap_8
XdigitalH.g\[82\].u.inv VPWR digitalH.g\[82\].u.OUTN net57 VGND sg13g2_inv_1
XFILLER_4_911 VPWR VGND sg13g2_decap_8
XdigitalH.g\[125\].u.buff net22 digitalH.g\[125\].u.OUTP VPWR VGND sg13g2_buf_1
XFILLER_3_410 VPWR VGND sg13g2_decap_8
XFILLER_4_988 VPWR VGND sg13g2_decap_8
XFILLER_3_487 VPWR VGND sg13g2_decap_8
XFILLER_1_0 VPWR VGND sg13g2_decap_8
XFILLER_39_609 VPWR VGND sg13g2_decap_8
XFILLER_38_119 VPWR VGND sg13g2_decap_8
XFILLER_19_333 VPWR VGND sg13g2_decap_8
XFILLER_47_686 VPWR VGND sg13g2_decap_8
XFILLER_34_336 VPWR VGND sg13g2_decap_8
XFILLER_46_196 VPWR VGND sg13g2_decap_8
XFILLER_30_586 VPWR VGND sg13g2_decap_8
XFILLER_6_270 VPWR VGND sg13g2_decap_8
XFILLER_34_0 VPWR VGND sg13g2_decap_8
XFILLER_1_91 VPWR VGND sg13g2_decap_8
XFILLER_26_837 VPWR VGND sg13g2_decap_8
XFILLER_38_686 VPWR VGND sg13g2_decap_8
XFILLER_25_347 VPWR VGND sg13g2_decap_8
XFILLER_37_196 VPWR VGND sg13g2_decap_8
XFILLER_21_564 VPWR VGND sg13g2_decap_8
XFILLER_4_218 VPWR VGND sg13g2_decap_8
XFILLER_1_903 VPWR VGND sg13g2_decap_8
XFILLER_20_67 VPWR VGND sg13g2_decap_8
XFILLER_0_413 VPWR VGND sg13g2_decap_8
XFILLER_48_406 VPWR VGND sg13g2_decap_8
XFILLER_29_54 VPWR VGND sg13g2_decap_8
XFILLER_28_130 VPWR VGND sg13g2_decap_8
XFILLER_29_642 VPWR VGND sg13g2_decap_8
XdigitalH.g\[29\].u.inv VPWR digitalH.g\[29\].u.OUTN net32 VGND sg13g2_inv_1
XFILLER_44_623 VPWR VGND sg13g2_decap_8
XdigitalL.g\[115\].u.buff net75 digitalL.g\[115\].u.OUTP VPWR VGND sg13g2_buf_1
XFILLER_16_336 VPWR VGND sg13g2_decap_8
XFILLER_43_133 VPWR VGND sg13g2_decap_8
XFILLER_45_42 VPWR VGND sg13g2_decap_8
XdigitalH.g\[93\].u.buff net54 digitalH.g\[93\].u.OUTP VPWR VGND sg13g2_buf_1
XFILLER_31_306 VPWR VGND sg13g2_decap_8
XdigitalH.g\[22\].u.buff net29 digitalH.g\[22\].u.OUTP VPWR VGND sg13g2_buf_1
XFILLER_8_524 VPWR VGND sg13g2_decap_8
XFILLER_12_586 VPWR VGND sg13g2_decap_8
XFILLER_6_25 VPWR VGND sg13g2_decap_8
XFILLER_4_785 VPWR VGND sg13g2_decap_8
XFILLER_3_284 VPWR VGND sg13g2_decap_8
XFILLER_39_406 VPWR VGND sg13g2_decap_8
XFILLER_0_980 VPWR VGND sg13g2_decap_8
XFILLER_48_973 VPWR VGND sg13g2_decap_8
XFILLER_19_130 VPWR VGND sg13g2_decap_8
XFILLER_47_483 VPWR VGND sg13g2_decap_8
XFILLER_35_623 VPWR VGND sg13g2_decap_8
XFILLER_34_133 VPWR VGND sg13g2_decap_8
XFILLER_30_383 VPWR VGND sg13g2_decap_8
XdigitalL.g\[6\].u.buff net68 digitalL.g\[6\].u.OUTP VPWR VGND sg13g2_buf_1
XdigitalH.g\[30\].u.inv VPWR digitalH.g\[30\].u.OUTN net32 VGND sg13g2_inv_1
XFILLER_38_483 VPWR VGND sg13g2_decap_8
XFILLER_26_634 VPWR VGND sg13g2_decap_8
XFILLER_25_144 VPWR VGND sg13g2_decap_8
XFILLER_13_339 VPWR VGND sg13g2_decap_8
XFILLER_15_45 VPWR VGND sg13g2_decap_8
XFILLER_41_637 VPWR VGND sg13g2_decap_8
XFILLER_22_851 VPWR VGND sg13g2_decap_8
XFILLER_40_147 VPWR VGND sg13g2_decap_8
XFILLER_21_361 VPWR VGND sg13g2_decap_8
XFILLER_31_33 VPWR VGND sg13g2_decap_8
XFILLER_1_700 VPWR VGND sg13g2_decap_8
Xoutput9 net9 uio_out[4] VPWR VGND sg13g2_buf_1
Xoutput11 net11 uio_out[6] VPWR VGND sg13g2_buf_1
XFILLER_0_210 VPWR VGND sg13g2_decap_8
XFILLER_1_777 VPWR VGND sg13g2_decap_8
XFILLER_0_287 VPWR VGND sg13g2_decap_8
XFILLER_48_203 VPWR VGND sg13g2_decap_8
XFILLER_45_910 VPWR VGND sg13g2_decap_8
XFILLER_44_420 VPWR VGND sg13g2_decap_8
XFILLER_17_645 VPWR VGND sg13g2_decap_8
XFILLER_45_987 VPWR VGND sg13g2_decap_8
XFILLER_16_133 VPWR VGND sg13g2_decap_8
XFILLER_44_497 VPWR VGND sg13g2_decap_8
XFILLER_31_103 VPWR VGND sg13g2_decap_8
XFILLER_8_321 VPWR VGND sg13g2_decap_8
XdigitalL.g\[84\].u.inv VPWR digitalL.g\[84\].u.OUTN net96 VGND sg13g2_inv_1
XFILLER_12_383 VPWR VGND sg13g2_decap_8
XFILLER_8_398 VPWR VGND sg13g2_decap_8
XFILLER_4_582 VPWR VGND sg13g2_decap_8
XFILLER_28_1019 VPWR VGND sg13g2_decap_8
XFILLER_39_203 VPWR VGND sg13g2_decap_8
XFILLER_48_770 VPWR VGND sg13g2_decap_8
XFILLER_47_280 VPWR VGND sg13g2_decap_8
XFILLER_35_420 VPWR VGND sg13g2_decap_8
XFILLER_23_648 VPWR VGND sg13g2_decap_8
XFILLER_35_497 VPWR VGND sg13g2_decap_8
XFILLER_22_158 VPWR VGND sg13g2_decap_8
XFILLER_31_670 VPWR VGND sg13g2_decap_8
XFILLER_30_180 VPWR VGND sg13g2_decap_8
XFILLER_2_508 VPWR VGND sg13g2_decap_8
XFILLER_46_707 VPWR VGND sg13g2_decap_8
XFILLER_27_910 VPWR VGND sg13g2_decap_8
XFILLER_45_217 VPWR VGND sg13g2_decap_8
XFILLER_26_11 VPWR VGND sg13g2_decap_8
XFILLER_26_431 VPWR VGND sg13g2_decap_8
XFILLER_38_280 VPWR VGND sg13g2_decap_8
XFILLER_27_987 VPWR VGND sg13g2_decap_8
XFILLER_14_648 VPWR VGND sg13g2_decap_8
XFILLER_26_88 VPWR VGND sg13g2_decap_8
XFILLER_13_136 VPWR VGND sg13g2_decap_8
XFILLER_41_434 VPWR VGND sg13g2_decap_8
XFILLER_42_21 VPWR VGND sg13g2_decap_8
XFILLER_42_98 VPWR VGND sg13g2_decap_8
XFILLER_6_847 VPWR VGND sg13g2_decap_8
XFILLER_5_368 VPWR VGND sg13g2_decap_8
XFILLER_1_574 VPWR VGND sg13g2_decap_8
XFILLER_49_567 VPWR VGND sg13g2_decap_8
XFILLER_37_707 VPWR VGND sg13g2_decap_8
XFILLER_36_217 VPWR VGND sg13g2_decap_8