* NGSPICE file created from heichips25_pudding.ext - technology: ihp-sg13g2

* Black-box entry subcircuit for sg13g2_decap_8 abstract view
.subckt sg13g2_decap_8 VDD VSS
.ends

* Black-box entry subcircuit for sg13g2_nand2_1 abstract view
.subckt sg13g2_nand2_1 Y A B VDD VSS
.ends

* Black-box entry subcircuit for sg13g2_tiehi abstract view
.subckt sg13g2_tiehi VDD VSS L_HI
.ends

* Black-box entry subcircuit for sg13g2_a221oi_1 abstract view
.subckt sg13g2_a221oi_1 VDD VSS B2 C1 B1 A1 Y A2
.ends

* Black-box entry subcircuit for sg13g2_fill_1 abstract view
.subckt sg13g2_fill_1 VDD VSS
.ends

* Black-box entry subcircuit for sg13g2_fill_2 abstract view
.subckt sg13g2_fill_2 VDD VSS
.ends

* Black-box entry subcircuit for sg13g2_decap_4 abstract view
.subckt sg13g2_decap_4 VDD VSS
.ends

* Black-box entry subcircuit for sg13g2_o21ai_1 abstract view
.subckt sg13g2_o21ai_1 B1 VDD Y VSS A1 A2
.ends

* Black-box entry subcircuit for sg13g2_buf_1 abstract view
.subckt sg13g2_buf_1 A X VDD VSS
.ends

* Black-box entry subcircuit for sg13g2_inv_1 abstract view
.subckt sg13g2_inv_1 VDD Y A VSS
.ends

* Black-box entry subcircuit for sg13g2_dfrbpq_1 abstract view
.subckt sg13g2_dfrbpq_1 RESET_B VSS VDD D Q CLK
.ends

* Black-box entry subcircuit for sg13g2_a21oi_1 abstract view
.subckt sg13g2_a21oi_1 VSS VDD A1 A2 Y B1
.ends

* Black-box entry subcircuit for sg13g2_a21o_1 abstract view
.subckt sg13g2_a21o_1 A2 A1 B1 X VDD VSS
.ends

* Black-box entry subcircuit for sg13g2_antennanp abstract view
.subckt sg13g2_antennanp VDD VSS A
.ends

* Black-box entry subcircuit for sg13g2_buf_8 abstract view
.subckt sg13g2_buf_8 A X VDD VSS
.ends

* Black-box entry subcircuit for sg13g2_inv_2 abstract view
.subckt sg13g2_inv_2 Y A VDD VSS
.ends

* Black-box entry subcircuit for sg13g2_inv_4 abstract view
.subckt sg13g2_inv_4 A Y VDD VSS
.ends

* Black-box entry subcircuit for sg13g2_buf_16 abstract view
.subckt sg13g2_buf_16 X A VDD VSS
.ends

* Black-box entry subcircuit for dac128module abstract view
.subckt dac128module ON[64] ONB[64] ON[65] ONB[65] ON[66] ONB[66] ON[67] ONB[67] ON[68]
+ ONB[68] ON[69] ONB[69] ON[70] ONB[70] ON[71] ONB[71] ON[72] ONB[72] EN[2] ENB[2]
+ ON[73] ONB[73] ON[74] ONB[74] ON[75] ONB[75] ON[76] ONB[76] ON[77] ONB[77] ON[78]
+ ONB[78] ON[79] ONB[79] ON[80] ONB[80] ON[81] ONB[81] ON[82] ONB[82] ON[83] ONB[83]
+ ON[84] ONB[84] ON[85] ONB[85] ON[86] ONB[86] ON[87] ONB[87] ON[88] ONB[88] ON[89]
+ ONB[89] ON[90] ONB[90] ON[91] ONB[91] ON[92] ONB[92] ON[93] ONB[93] ON[94] ONB[94]
+ ON[95] ONB[95] ON[96] ONB[96] ON[97] ONB[97] ON[98] ONB[98] ON[99] ONB[99] ON[100]
+ ONB[100] ON[101] ONB[101] ON[102] ONB[102] ON[103] ONB[103] ON[104] ONB[104] ON[105]
+ ONB[105] ON[106] ONB[106] ON[107] ONB[107] ON[108] ONB[108] ON[109] ONB[109] ON[110]
+ ONB[110] ON[111] ONB[111] ON[112] ONB[112] ON[113] ONB[113] ON[114] ONB[114] ON[115]
+ ONB[115] ON[116] ONB[116] ON[117] ONB[117] ON[118] ONB[118] ON[119] ONB[119] ON[120]
+ ONB[120] ON[121] ONB[121] ON[122] ONB[122] EN[3] ENB[3] ON[123] ONB[123] ON[124]
+ ONB[124] ON[125] ONB[125] ON[126] ONB[126] ON[127] ONB[127] ON[0] ONB[0] ON[1] ONB[1]
+ ON[2] ONB[2] ON[3] ONB[3] ON[4] ONB[4] ON[5] ONB[5] ON[6] EN[0] ENB[0] ONB[6] ON[7]
+ ONB[7] ON[8] ONB[8] ON[9] ONB[9] ON[10] ONB[10] ON[11] ONB[11] ON[12] ONB[12] ON[13]
+ ONB[13] ON[14] ONB[14] ON[15] ONB[15] ON[16] ONB[16] ON[17] ONB[17] ON[18] ONB[18]
+ ON[19] ONB[19] ON[20] ONB[20] ON[21] ONB[21] ON[22] ONB[22] ON[23] ONB[23] ON[24]
+ ONB[24] ON[25] ONB[25] ON[26] ONB[26] ON[27] ONB[27] ON[28] ONB[28] ON[29] ONB[29]
+ ON[30] ONB[30] ON[31] ONB[31] ON[33] ONB[33] ON[32] ONB[32] ON[34] ONB[34] ON[35]
+ ONB[35] ON[36] ONB[36] ON[37] ONB[37] ON[38] ONB[38] ON[39] ONB[39] ON[40] ONB[40]
+ ON[41] ONB[41] ON[42] ONB[42] ON[43] ONB[43] ON[44] ONB[44] ON[45] ONB[45] ON[46]
+ ONB[46] ON[47] ONB[47] ON[48] ONB[48] ON[49] ONB[49] ON[50] ONB[50] ON[51] ONB[51]
+ ON[52] ONB[52] ON[53] ONB[53] ON[54] ONB[54] ON[55] ONB[55] ON[56] ONB[56] ON[57]
+ ONB[57] ON[58] ONB[58] ON[59] ONB[59] ON[60] ONB[60] ON[61] ONB[61] ON[62] ONB[62]
+ ON[63] ONB[63] EN[1] ENB[1] VSS VDD
.ends

* Black-box entry subcircuit for sg13g2_nor2_1 abstract view
.subckt sg13g2_nor2_1 A B Y VDD VSS
.ends

.subckt heichips25_pudding VGND VPWR clk ena rst_n ui_in[0] ui_in[1] ui_in[2] ui_in[3]
+ ui_in[4] ui_in[5] ui_in[6] ui_in[7] uio_in[0] uio_in[1] uio_in[2] uio_in[3] uio_in[4]
+ uio_in[5] uio_in[6] uio_in[7] uio_oe[0] uio_oe[1] uio_oe[2] uio_oe[3] uio_oe[4]
+ uio_oe[5] uio_oe[6] uio_oe[7] uio_out[0] uio_out[1] uio_out[2] uio_out[3] uio_out[4]
+ uio_out[5] uio_out[6] uio_out[7] uo_out[0] uo_out[1] uo_out[2] uo_out[3] uo_out[4]
+ uo_out[5] uo_out[6] uo_out[7]
XFILLER_39_266 VPWR VGND sg13g2_decap_8
X_2106_ _0924_ net124 state\[26\] VPWR VGND sg13g2_nand2_1
X_2493__270 VPWR VGND net269 sg13g2_tiehi
X_2037_ VPWR VGND _0885_ net71 _0884_ _0154_ _0379_ net25 sg13g2_a221oi_1
XFILLER_35_472 VPWR VGND sg13g2_decap_8
XFILLER_22_144 VPWR VGND sg13g2_decap_8
XFILLER_7_7 VPWR VGND sg13g2_decap_8
XFILLER_2_516 VPWR VGND sg13g2_decap_8
XFILLER_45_203 VPWR VGND sg13g2_decap_8
X_2472__354 VPWR VGND net353 sg13g2_tiehi
XFILLER_26_74 VPWR VGND sg13g2_decap_8
XFILLER_14_612 VPWR VGND sg13g2_decap_8
XFILLER_26_494 VPWR VGND sg13g2_fill_1
XFILLER_14_645 VPWR VGND sg13g2_decap_8
XFILLER_13_144 VPWR VGND sg13g2_decap_8
XFILLER_9_137 VPWR VGND sg13g2_decap_8
XFILLER_42_84 VPWR VGND sg13g2_decap_8
XFILLER_5_354 VPWR VGND sg13g2_decap_8
XFILLER_1_560 VPWR VGND sg13g2_decap_8
XFILLER_49_520 VPWR VGND sg13g2_fill_2
XFILLER_3_67 VPWR VGND sg13g2_decap_8
XFILLER_37_715 VPWR VGND sg13g2_decap_4
XFILLER_49_597 VPWR VGND sg13g2_fill_1
XFILLER_36_203 VPWR VGND sg13g2_decap_8
X_2451__438 VPWR VGND net437 sg13g2_tiehi
XFILLER_44_280 VPWR VGND sg13g2_decap_8
XFILLER_32_420 VPWR VGND sg13g2_fill_2
XFILLER_20_604 VPWR VGND sg13g2_fill_1
X_1606_ net211 VPWR _0562_ VGND state\[16\] net171 sg13g2_o21ai_1
Xfanout138 net141 net138 VPWR VGND sg13g2_buf_1
Xfanout127 net128 net127 VPWR VGND sg13g2_buf_1
Xfanout116 net119 net116 VPWR VGND sg13g2_buf_1
Xfanout105 net106 net105 VPWR VGND sg13g2_buf_1
X_1537_ VPWR _0178_ daisychain\[2\] VGND sg13g2_inv_1
Xfanout149 net150 net149 VPWR VGND sg13g2_buf_1
X_1468_ VPWR _0224_ daisychain\[71\] VGND sg13g2_inv_1
X_1399_ VPWR _0031_ state\[12\] VGND sg13g2_inv_1
XFILLER_27_203 VPWR VGND sg13g2_decap_8
XFILLER_42_217 VPWR VGND sg13g2_decap_8
XFILLER_35_280 VPWR VGND sg13g2_decap_8
XFILLER_23_420 VPWR VGND sg13g2_decap_8
XFILLER_10_158 VPWR VGND sg13g2_decap_8
XFILLER_12_32 VPWR VGND sg13g2_decap_8
XFILLER_5_4 VPWR VGND sg13g2_decap_8
XFILLER_2_368 VPWR VGND sg13g2_decap_8
XFILLER_46_523 VPWR VGND sg13g2_fill_2
XFILLER_46_512 VPWR VGND sg13g2_decap_8
XFILLER_18_214 VPWR VGND sg13g2_decap_8
XFILLER_37_84 VPWR VGND sg13g2_decap_8
XFILLER_27_781 VPWR VGND sg13g2_fill_2
XFILLER_33_228 VPWR VGND sg13g2_decap_8
XFILLER_26_291 VPWR VGND sg13g2_decap_8
XFILLER_14_431 VPWR VGND sg13g2_decap_8
XFILLER_14_442 VPWR VGND sg13g2_fill_1
XFILLER_41_294 VPWR VGND sg13g2_decap_8
X_2440_ net481 VGND VPWR _0386_ state\[2\] clknet_leaf_2_clk sg13g2_dfrbpq_1
XFILLER_5_151 VPWR VGND sg13g2_decap_8
X_2371_ net366 VGND VPWR _0317_ daisychain\[61\] clknet_leaf_13_clk sg13g2_dfrbpq_1
X_1322_ VPWR _0115_ state\[89\] VGND sg13g2_inv_1
XFILLER_49_361 VPWR VGND sg13g2_decap_8
XFILLER_24_228 VPWR VGND sg13g2_decap_8
XFILLER_17_280 VPWR VGND sg13g2_decap_8
XFILLER_21_935 VPWR VGND sg13g2_fill_1
XFILLER_0_828 VPWR VGND sg13g2_decap_8
XFILLER_15_228 VPWR VGND sg13g2_decap_8
XFILLER_11_445 VPWR VGND sg13g2_decap_8
XFILLER_23_53 VPWR VGND sg13g2_decap_8
XFILLER_7_416 VPWR VGND sg13g2_decap_8
XFILLER_2_165 VPWR VGND sg13g2_decap_8
XFILLER_0_35 VPWR VGND sg13g2_decap_8
XFILLER_46_364 VPWR VGND sg13g2_decap_8
XFILLER_34_515 VPWR VGND sg13g2_fill_1
XFILLER_9_11 VPWR VGND sg13g2_decap_8
X_1940_ VGND VPWR net142 daisychain\[98\] _0813_ net47 sg13g2_a21oi_1
X_1871_ net201 _0236_ _0760_ _0761_ VPWR VGND sg13g2_a21o_1
XFILLER_9_88 VPWR VGND sg13g2_decap_8
XFILLER_6_482 VPWR VGND sg13g2_decap_8
X_2423_ net262 VGND VPWR _0369_ daisychain\[113\] clknet_leaf_4_clk sg13g2_dfrbpq_1
X_2354_ net400 VGND VPWR _0300_ daisychain\[44\] clknet_leaf_15_clk sg13g2_dfrbpq_1
X_1305_ VPWR _0007_ state\[106\] VGND sg13g2_inv_1
X_2285_ VGND VPWR _0860_ _1013_ _0499_ net83 sg13g2_a21oi_1
XFILLER_37_364 VPWR VGND sg13g2_fill_2
XFILLER_37_397 VPWR VGND sg13g2_fill_1
XFILLER_37_386 VPWR VGND sg13g2_decap_8
XFILLER_25_548 VPWR VGND sg13g2_fill_2
XFILLER_33_592 VPWR VGND sg13g2_fill_2
XFILLER_20_242 VPWR VGND sg13g2_decap_8
XFILLER_21_798 VPWR VGND sg13g2_fill_2
XFILLER_21_776 VPWR VGND sg13g2_fill_1
XFILLER_0_658 VPWR VGND sg13g2_decap_4
XFILLER_18_53 VPWR VGND sg13g2_decap_8
XFILLER_44_813 VPWR VGND sg13g2_fill_2
XFILLER_43_301 VPWR VGND sg13g2_decap_8
X_2434__241 VPWR VGND net240 sg13g2_tiehi
XFILLER_12_710 VPWR VGND sg13g2_decap_8
XFILLER_12_721 VPWR VGND sg13g2_fill_2
XFILLER_43_378 VPWR VGND sg13g2_fill_1
XFILLER_34_74 VPWR VGND sg13g2_decap_8
XFILLER_11_242 VPWR VGND sg13g2_decap_8
XFILLER_7_224 VPWR VGND sg13g2_decap_8
XFILLER_4_920 VPWR VGND sg13g2_decap_8
X_2365__379 VPWR VGND net378 sg13g2_tiehi
XFILLER_4_931 VPWR VGND sg13g2_fill_2
XFILLER_3_452 VPWR VGND sg13g2_decap_8
XFILLER_39_629 VPWR VGND sg13g2_fill_2
X_2070_ _0906_ net118 state\[8\] VPWR VGND sg13g2_nand2_1
XFILLER_19_375 VPWR VGND sg13g2_decap_8
XFILLER_46_161 VPWR VGND sg13g2_decap_8
XFILLER_34_312 VPWR VGND sg13g2_decap_8
XFILLER_15_581 VPWR VGND sg13g2_decap_8
XFILLER_15_570 VPWR VGND sg13g2_decap_8
X_1923_ net187 _0250_ _0799_ _0800_ VPWR VGND sg13g2_a21o_1
X_1854_ net229 VPWR _0748_ VGND state\[78\] net204 sg13g2_o21ai_1
X_1785_ VPWR VGND _0696_ net106 _0695_ _0212_ _0316_ net57 sg13g2_a221oi_1
X_2406_ net296 VGND VPWR _0352_ daisychain\[96\] clknet_leaf_6_clk sg13g2_dfrbpq_1
X_2337_ net434 VGND VPWR _0283_ daisychain\[27\] clknet_leaf_16_clk sg13g2_dfrbpq_1
X_2268_ _1005_ net134 state\[107\] VPWR VGND sg13g2_nand2_1
X_2199_ VGND VPWR _0731_ _0970_ _0456_ net111 sg13g2_a21oi_1
XFILLER_37_161 VPWR VGND sg13g2_decap_8
XFILLER_26_857 VPWR VGND sg13g2_fill_2
XFILLER_25_312 VPWR VGND sg13g2_decap_8
XFILLER_40_315 VPWR VGND sg13g2_decap_8
XFILLER_21_551 VPWR VGND sg13g2_fill_2
X_2468__370 VPWR VGND net369 sg13g2_tiehi
XFILLER_4_249 VPWR VGND sg13g2_decap_8
XFILLER_20_32 VPWR VGND sg13g2_decap_8
XFILLER_0_455 VPWR VGND sg13g2_decap_8
XFILLER_48_415 VPWR VGND sg13g2_decap_8
XFILLER_29_74 VPWR VGND sg13g2_decap_8
XFILLER_28_172 VPWR VGND sg13g2_decap_8
XFILLER_16_312 VPWR VGND sg13g2_decap_8
XFILLER_44_665 VPWR VGND sg13g2_decap_8
XFILLER_45_84 VPWR VGND sg13g2_decap_8
XFILLER_43_175 VPWR VGND sg13g2_decap_8
XFILLER_31_326 VPWR VGND sg13g2_decap_8
XFILLER_16_389 VPWR VGND sg13g2_decap_8
XFILLER_8_522 VPWR VGND sg13g2_decap_8
XFILLER_12_595 VPWR VGND sg13g2_decap_4
X_2447__454 VPWR VGND net453 sg13g2_tiehi
XANTENNA_5 VPWR VGND _0164_ sg13g2_antennanp
X_1570_ net212 VPWR _0535_ VGND state\[7\] net164 sg13g2_o21ai_1
XFILLER_6_67 VPWR VGND sg13g2_decap_8
XFILLER_4_761 VPWR VGND sg13g2_fill_1
XFILLER_39_404 VPWR VGND sg13g2_decap_8
XFILLER_20_4 VPWR VGND sg13g2_decap_8
X_2122_ _0932_ net123 state\[34\] VPWR VGND sg13g2_nand2_1
XFILLER_26_109 VPWR VGND sg13g2_decap_8
X_2053_ VPWR VGND _0897_ net72 _0896_ _0158_ _0383_ net26 sg13g2_a221oi_1
XFILLER_47_481 VPWR VGND sg13g2_decap_8
XFILLER_35_621 VPWR VGND sg13g2_fill_1
XFILLER_19_172 VPWR VGND sg13g2_decap_8
XFILLER_34_186 VPWR VGND sg13g2_decap_8
XFILLER_22_326 VPWR VGND sg13g2_decap_8
X_1906_ net230 VPWR _0787_ VGND state\[91\] net203 sg13g2_o21ai_1
X_1837_ VPWR VGND _0735_ net107 _0734_ _0226_ _0329_ net59 sg13g2_a221oi_1
X_1768_ VGND VPWR net152 daisychain\[55\] _0684_ net56 sg13g2_a21oi_1
X_1699_ net170 _0188_ _0631_ _0632_ VPWR VGND sg13g2_a21o_1
XFILLER_26_610 VPWR VGND sg13g2_decap_8
XFILLER_15_32 VPWR VGND sg13g2_decap_8
XFILLER_13_326 VPWR VGND sg13g2_decap_8
XFILLER_40_112 VPWR VGND sg13g2_decap_8
XFILLER_25_186 VPWR VGND sg13g2_decap_8
XFILLER_9_319 VPWR VGND sg13g2_decap_8
XFILLER_40_189 VPWR VGND sg13g2_decap_8
XFILLER_5_503 VPWR VGND sg13g2_decap_8
XFILLER_31_53 VPWR VGND sg13g2_decap_8
Xoutput20 net20 uo_out[4] VPWR VGND sg13g2_buf_1
XFILLER_0_252 VPWR VGND sg13g2_decap_8
XFILLER_49_746 VPWR VGND sg13g2_decap_8
XFILLER_1_797 VPWR VGND sg13g2_fill_1
XdigitalenH.g\[1\].u.inv1 VPWR digitalenH.g\[1\].u.OUTN net7 VGND sg13g2_inv_1
XFILLER_49_779 VPWR VGND sg13g2_decap_8
XFILLER_48_245 VPWR VGND sg13g2_decap_8
XFILLER_29_492 VPWR VGND sg13g2_decap_8
XFILLER_44_495 VPWR VGND sg13g2_fill_2
XFILLER_32_635 VPWR VGND sg13g2_fill_1
XFILLER_31_123 VPWR VGND sg13g2_decap_8
XFILLER_16_186 VPWR VGND sg13g2_decap_8
X_1622_ net218 VPWR _0574_ VGND state\[20\] net183 sg13g2_o21ai_1
XFILLER_8_396 VPWR VGND sg13g2_decap_8
X_1553_ VPWR VGND _0522_ net84 _0521_ _0178_ _0258_ net38 sg13g2_a221oi_1
X_1484_ VPWR _0206_ daisychain\[55\] VGND sg13g2_inv_1
XFILLER_4_580 VPWR VGND sg13g2_decap_4
XFILLER_39_245 VPWR VGND sg13g2_decap_8
X_2105_ VGND VPWR _0590_ _0923_ _0409_ net78 sg13g2_a21oi_1
X_2036_ VGND VPWR net116 daisychain\[122\] _0885_ net26 sg13g2_a21oi_1
XFILLER_23_646 VPWR VGND sg13g2_decap_4
XFILLER_22_123 VPWR VGND sg13g2_decap_8
XFILLER_31_690 VPWR VGND sg13g2_decap_4
X_2502__234 VPWR VGND net sg13g2_tiehi
XFILLER_45_259 VPWR VGND sg13g2_decap_8
XFILLER_27_996 VPWR VGND sg13g2_decap_4
XFILLER_27_985 VPWR VGND sg13g2_fill_2
XFILLER_26_53 VPWR VGND sg13g2_decap_8
XFILLER_13_123 VPWR VGND sg13g2_decap_8
XFILLER_9_116 VPWR VGND sg13g2_decap_8
XFILLER_41_465 VPWR VGND sg13g2_fill_1
XFILLER_42_63 VPWR VGND sg13g2_decap_8
XFILLER_5_333 VPWR VGND sg13g2_decap_8
XFILLER_3_46 VPWR VGND sg13g2_decap_8
XFILLER_49_576 VPWR VGND sg13g2_decap_8
XFILLER_49_554 VPWR VGND sg13g2_decap_8
XFILLER_36_259 VPWR VGND sg13g2_decap_8
XFILLER_45_771 VPWR VGND sg13g2_fill_1
XFILLER_8_193 VPWR VGND sg13g2_decap_8
X_1605_ VPWR VGND _0561_ net75 _0560_ _0162_ _0271_ net29 sg13g2_a221oi_1
X_1536_ VPWR _0189_ daisychain\[3\] VGND sg13g2_inv_1
Xfanout128 net146 net128 VPWR VGND sg13g2_buf_1
Xfanout117 net119 net117 VPWR VGND sg13g2_buf_1
Xfanout106 net115 net106 VPWR VGND sg13g2_buf_1
Xfanout139 net141 net139 VPWR VGND sg13g2_buf_1
X_1467_ VPWR _0225_ daisychain\[72\] VGND sg13g2_inv_1
X_1398_ VPWR _0032_ state\[13\] VGND sg13g2_inv_1
XFILLER_28_727 VPWR VGND sg13g2_fill_1
XFILLER_27_259 VPWR VGND sg13g2_decap_8
X_2019_ net181 _0149_ _0871_ _0872_ VPWR VGND sg13g2_a21o_1
XFILLER_24_955 VPWR VGND sg13g2_decap_8
XFILLER_10_137 VPWR VGND sg13g2_decap_8
XFILLER_12_11 VPWR VGND sg13g2_decap_8
XFILLER_12_88 VPWR VGND sg13g2_decap_8
XFILLER_2_347 VPWR VGND sg13g2_decap_8
XFILLER_37_63 VPWR VGND sg13g2_decap_8
XFILLER_33_207 VPWR VGND sg13g2_decap_8
XFILLER_26_270 VPWR VGND sg13g2_decap_8
XFILLER_14_410 VPWR VGND sg13g2_decap_8
XFILLER_41_273 VPWR VGND sg13g2_decap_8
XFILLER_5_130 VPWR VGND sg13g2_decap_8
XFILLER_6_686 VPWR VGND sg13g2_fill_2
X_2370_ net368 VGND VPWR _0316_ daisychain\[60\] clknet_leaf_13_clk sg13g2_dfrbpq_1
X_1321_ VPWR _0117_ state\[90\] VGND sg13g2_inv_1
XFILLER_49_340 VPWR VGND sg13g2_decap_8
XFILLER_37_524 VPWR VGND sg13g2_decap_4
X_2375__359 VPWR VGND net358 sg13g2_tiehi
XFILLER_37_535 VPWR VGND sg13g2_decap_8
XFILLER_24_207 VPWR VGND sg13g2_decap_8
X_2531__260 VPWR VGND net259 sg13g2_tiehi
XFILLER_21_914 VPWR VGND sg13g2_fill_1
XFILLER_32_284 VPWR VGND sg13g2_decap_8
XFILLER_21_947 VPWR VGND sg13g2_fill_1
XFILLER_9_480 VPWR VGND sg13g2_decap_8
XFILLER_0_807 VPWR VGND sg13g2_fill_2
X_2499_ net245 VGND VPWR _0445_ state\[61\] clknet_leaf_13_clk sg13g2_dfrbpq_1
X_1519_ VPWR _0168_ daisychain\[20\] VGND sg13g2_inv_1
XFILLER_15_207 VPWR VGND sg13g2_decap_8
XFILLER_11_424 VPWR VGND sg13g2_decap_8
XFILLER_23_32 VPWR VGND sg13g2_decap_8
XFILLER_23_284 VPWR VGND sg13g2_decap_8
XFILLER_2_144 VPWR VGND sg13g2_decap_8
XFILLER_48_84 VPWR VGND sg13g2_decap_8
XFILLER_0_14 VPWR VGND sg13g2_decap_8
XFILLER_46_343 VPWR VGND sg13g2_decap_8
XFILLER_19_535 VPWR VGND sg13g2_fill_2
XFILLER_27_590 VPWR VGND sg13g2_decap_8
XFILLER_42_560 VPWR VGND sg13g2_decap_8
XFILLER_30_722 VPWR VGND sg13g2_fill_1
X_1870_ net229 VPWR _0760_ VGND state\[82\] net201 sg13g2_o21ai_1
XFILLER_9_67 VPWR VGND sg13g2_decap_8
XFILLER_14_284 VPWR VGND sg13g2_decap_8
XFILLER_6_461 VPWR VGND sg13g2_decap_8
X_2422_ net264 VGND VPWR _0368_ daisychain\[112\] clknet_leaf_4_clk sg13g2_dfrbpq_1
X_2353_ net402 VGND VPWR _0299_ daisychain\[43\] clknet_leaf_15_clk sg13g2_dfrbpq_1
X_1304_ VPWR _0008_ state\[107\] VGND sg13g2_inv_1
X_2284_ _1013_ net130 state\[115\] VPWR VGND sg13g2_nand2_1
XFILLER_37_343 VPWR VGND sg13g2_decap_8
XFILLER_21_700 VPWR VGND sg13g2_decap_4
XFILLER_21_733 VPWR VGND sg13g2_decap_8
XFILLER_20_221 VPWR VGND sg13g2_decap_8
X_1999_ net175 _0144_ _0856_ _0857_ VPWR VGND sg13g2_a21o_1
XFILLER_20_298 VPWR VGND sg13g2_decap_8
X_2505__468 VPWR VGND net467 sg13g2_tiehi
XFILLER_0_637 VPWR VGND sg13g2_decap_8
X_2440__482 VPWR VGND net481 sg13g2_tiehi
XFILLER_18_32 VPWR VGND sg13g2_decap_8
XFILLER_28_354 VPWR VGND sg13g2_decap_8
XFILLER_16_549 VPWR VGND sg13g2_fill_2
XFILLER_43_357 VPWR VGND sg13g2_decap_8
XFILLER_34_53 VPWR VGND sg13g2_decap_8
XFILLER_31_519 VPWR VGND sg13g2_fill_2
XFILLER_11_221 VPWR VGND sg13g2_decap_8
XFILLER_7_203 VPWR VGND sg13g2_decap_8
XFILLER_11_298 VPWR VGND sg13g2_decap_8
XFILLER_3_431 VPWR VGND sg13g2_decap_8
XFILLER_47_663 VPWR VGND sg13g2_fill_1
XFILLER_46_140 VPWR VGND sg13g2_decap_8
XFILLER_19_354 VPWR VGND sg13g2_decap_8
XFILLER_34_368 VPWR VGND sg13g2_decap_8
XFILLER_15_560 VPWR VGND sg13g2_fill_1
X_1922_ net220 VPWR _0799_ VGND state\[95\] net187 sg13g2_o21ai_1
X_1853_ VPWR VGND _0747_ net112 _0746_ _0230_ _0333_ net66 sg13g2_a221oi_1
X_1784_ VGND VPWR net152 daisychain\[59\] _0696_ net57 sg13g2_a21oi_1
XFILLER_6_291 VPWR VGND sg13g2_decap_8
X_2405_ net298 VGND VPWR _0351_ daisychain\[95\] clknet_leaf_6_clk sg13g2_dfrbpq_1
XFILLER_41_0 VPWR VGND sg13g2_decap_8
X_2336_ net436 VGND VPWR _0282_ daisychain\[26\] clknet_leaf_1_clk sg13g2_dfrbpq_1
X_2267_ VGND VPWR _0833_ _1004_ _0490_ net85 sg13g2_a21oi_1
XFILLER_37_140 VPWR VGND sg13g2_decap_8
X_2198_ _0970_ net158 state\[72\] VPWR VGND sg13g2_nand2_1
XFILLER_25_368 VPWR VGND sg13g2_decap_4
XFILLER_4_228 VPWR VGND sg13g2_decap_8
XFILLER_20_11 VPWR VGND sg13g2_decap_8
XFILLER_20_88 VPWR VGND sg13g2_decap_8
XFILLER_0_434 VPWR VGND sg13g2_decap_8
XFILLER_1_946 VPWR VGND sg13g2_fill_2
XFILLER_29_53 VPWR VGND sg13g2_decap_8
X_2475__342 VPWR VGND net341 sg13g2_tiehi
XFILLER_29_630 VPWR VGND sg13g2_decap_4
XFILLER_21_1012 VPWR VGND sg13g2_fill_1
XFILLER_29_696 VPWR VGND sg13g2_fill_2
XFILLER_28_151 VPWR VGND sg13g2_decap_8
XFILLER_45_63 VPWR VGND sg13g2_decap_8
XFILLER_43_154 VPWR VGND sg13g2_decap_8
XFILLER_31_305 VPWR VGND sg13g2_decap_8
XFILLER_16_368 VPWR VGND sg13g2_decap_8
XFILLER_8_501 VPWR VGND sg13g2_decap_8
XANTENNA_6 VPWR VGND _0164_ sg13g2_antennanp
XFILLER_6_46 VPWR VGND sg13g2_decap_8
X_2121_ VGND VPWR _0614_ _0931_ _0417_ net78 sg13g2_a21oi_1
XFILLER_13_4 VPWR VGND sg13g2_decap_8
X_2052_ VGND VPWR net116 daisychain\[126\] _0897_ net26 sg13g2_a21oi_1
X_2454__426 VPWR VGND net425 sg13g2_tiehi
XFILLER_47_471 VPWR VGND sg13g2_fill_1
XFILLER_19_151 VPWR VGND sg13g2_decap_8
XFILLER_35_666 VPWR VGND sg13g2_fill_2
XFILLER_35_644 VPWR VGND sg13g2_decap_8
XFILLER_34_165 VPWR VGND sg13g2_decap_8
XFILLER_22_305 VPWR VGND sg13g2_decap_8
X_1905_ VPWR VGND _0786_ net108 _0785_ _0245_ _0346_ net60 sg13g2_a221oi_1
X_1836_ VGND VPWR net158 daisychain\[72\] _0735_ net59 sg13g2_a21oi_1
X_1767_ net199 _0207_ _0682_ _0683_ VPWR VGND sg13g2_a21o_1
X_1698_ net224 VPWR _0631_ VGND state\[39\] net170 sg13g2_o21ai_1
X_2319_ net470 VGND VPWR _0265_ daisychain\[9\] clknet_leaf_0_clk sg13g2_dfrbpq_1
XFILLER_13_305 VPWR VGND sg13g2_decap_8
XFILLER_41_614 VPWR VGND sg13g2_decap_8
XFILLER_26_677 VPWR VGND sg13g2_decap_4
XFILLER_25_165 VPWR VGND sg13g2_decap_8
XFILLER_15_11 VPWR VGND sg13g2_decap_8
XFILLER_40_168 VPWR VGND sg13g2_decap_8
XFILLER_15_88 VPWR VGND sg13g2_decap_8
XFILLER_22_894 VPWR VGND sg13g2_decap_8
XFILLER_21_382 VPWR VGND sg13g2_decap_4
XFILLER_31_32 VPWR VGND sg13g2_decap_8
XFILLER_21_393 VPWR VGND sg13g2_fill_1
XFILLER_5_559 VPWR VGND sg13g2_decap_8
X_2403__303 VPWR VGND net302 sg13g2_tiehi
Xoutput10 net10 uio_out[2] VPWR VGND sg13g2_buf_1
Xoutput21 net21 uo_out[5] VPWR VGND sg13g2_buf_1
Xoutput8 net8 uio_out[0] VPWR VGND sg13g2_buf_1
XFILLER_0_231 VPWR VGND sg13g2_decap_8
XFILLER_48_224 VPWR VGND sg13g2_decap_8
XdigitalenH.g\[1\].u.inv2 VPWR digitalenH.g\[1\].u.OUTP digitalenH.g\[1\].u.OUTN VGND
+ sg13g2_inv_1
XFILLER_17_600 VPWR VGND sg13g2_decap_8
XFILLER_17_677 VPWR VGND sg13g2_decap_8
XFILLER_16_165 VPWR VGND sg13g2_decap_8
XFILLER_31_102 VPWR VGND sg13g2_decap_8
XFILLER_12_382 VPWR VGND sg13g2_decap_8
XFILLER_31_179 VPWR VGND sg13g2_decap_8
X_1621_ VPWR VGND _0573_ net76 _0572_ _0166_ _0275_ net30 sg13g2_a221oi_1
XFILLER_8_375 VPWR VGND sg13g2_decap_8
X_1552_ VGND VPWR net131 daisychain\[1\] _0522_ net38 sg13g2_a21oi_1
X_1483_ VPWR _0207_ daisychain\[56\] VGND sg13g2_inv_1
XFILLER_39_224 VPWR VGND sg13g2_decap_8
X_2104_ _0923_ net126 state\[25\] VPWR VGND sg13g2_nand2_1
X_2035_ net165 _0154_ _0883_ _0884_ VPWR VGND sg13g2_a21o_1
XFILLER_22_102 VPWR VGND sg13g2_decap_8
XFILLER_23_658 VPWR VGND sg13g2_fill_1
XFILLER_10_319 VPWR VGND sg13g2_decap_8
XFILLER_22_179 VPWR VGND sg13g2_decap_8
X_2385__339 VPWR VGND net338 sg13g2_tiehi
X_1819_ net205 _0221_ _0721_ _0722_ VPWR VGND sg13g2_a21o_1
XFILLER_45_238 VPWR VGND sg13g2_decap_8
XFILLER_26_32 VPWR VGND sg13g2_decap_8
XFILLER_26_441 VPWR VGND sg13g2_fill_1
XFILLER_13_102 VPWR VGND sg13g2_decap_8
XFILLER_26_485 VPWR VGND sg13g2_decap_8
XFILLER_13_179 VPWR VGND sg13g2_decap_8
XFILLER_42_42 VPWR VGND sg13g2_decap_8
XFILLER_41_499 VPWR VGND sg13g2_decap_8
XFILLER_41_477 VPWR VGND sg13g2_decap_8
XFILLER_22_680 VPWR VGND sg13g2_fill_2
XFILLER_5_312 VPWR VGND sg13g2_decap_8
XFILLER_5_389 VPWR VGND sg13g2_decap_8
XFILLER_3_25 VPWR VGND sg13g2_decap_8
XFILLER_1_595 VPWR VGND sg13g2_decap_8
X_2557__280 VPWR VGND net279 sg13g2_tiehi
XFILLER_36_238 VPWR VGND sg13g2_decap_8
XFILLER_32_499 VPWR VGND sg13g2_fill_2
XFILLER_9_684 VPWR VGND sg13g2_decap_4
XFILLER_8_172 VPWR VGND sg13g2_decap_8
X_1604_ VGND VPWR net122 daisychain\[14\] _0561_ net29 sg13g2_a21oi_1
X_1535_ VPWR _0200_ daisychain\[4\] VGND sg13g2_inv_1
Xfanout129 net133 net129 VPWR VGND sg13g2_buf_1
Xfanout118 net119 net118 VPWR VGND sg13g2_buf_1
Xfanout107 net110 net107 VPWR VGND sg13g2_buf_1
X_1466_ VPWR _0226_ daisychain\[73\] VGND sg13g2_inv_1
X_1397_ VPWR _0033_ state\[14\] VGND sg13g2_inv_1
XFILLER_27_238 VPWR VGND sg13g2_decap_8
X_2018_ net215 VPWR _0871_ VGND state\[119\] net175 sg13g2_o21ai_1
XFILLER_24_989 VPWR VGND sg13g2_decap_8
XFILLER_24_978 VPWR VGND sg13g2_decap_4
XFILLER_10_116 VPWR VGND sg13g2_decap_8
XFILLER_6_109 VPWR VGND sg13g2_decap_8
XFILLER_12_67 VPWR VGND sg13g2_decap_8
X_2508__444 VPWR VGND net443 sg13g2_tiehi
XFILLER_2_326 VPWR VGND sg13g2_decap_8
XFILLER_37_42 VPWR VGND sg13g2_decap_8
XFILLER_18_249 VPWR VGND sg13g2_decap_8
XFILLER_42_720 VPWR VGND sg13g2_fill_2
XFILLER_41_252 VPWR VGND sg13g2_decap_8
XFILLER_5_186 VPWR VGND sg13g2_decap_8
XFILLER_45_7 VPWR VGND sg13g2_decap_8
X_1320_ VPWR _0118_ state\[91\] VGND sg13g2_inv_1
XFILLER_1_392 VPWR VGND sg13g2_decap_8
XFILLER_49_396 VPWR VGND sg13g2_decap_8
XFILLER_45_591 VPWR VGND sg13g2_fill_2
XFILLER_32_263 VPWR VGND sg13g2_decap_8
XFILLER_21_926 VPWR VGND sg13g2_fill_1
XFILLER_20_436 VPWR VGND sg13g2_decap_8
XFILLER_20_425 VPWR VGND sg13g2_fill_1
X_2498_ net249 VGND VPWR _0444_ state\[60\] clknet_leaf_13_clk sg13g2_dfrbpq_1
X_1518_ VPWR _0169_ daisychain\[21\] VGND sg13g2_inv_1
X_1449_ VPWR _0245_ daisychain\[90\] VGND sg13g2_inv_1
XFILLER_11_403 VPWR VGND sg13g2_decap_8
XFILLER_23_263 VPWR VGND sg13g2_decap_8
XFILLER_23_11 VPWR VGND sg13g2_decap_8
XFILLER_23_88 VPWR VGND sg13g2_decap_8
XFILLER_3_635 VPWR VGND sg13g2_decap_8
XFILLER_2_123 VPWR VGND sg13g2_decap_8
XFILLER_48_63 VPWR VGND sg13g2_decap_8
XFILLER_47_801 VPWR VGND sg13g2_fill_1
XFILLER_46_322 VPWR VGND sg13g2_decap_8
XFILLER_46_399 VPWR VGND sg13g2_decap_8
XFILLER_42_550 VPWR VGND sg13g2_fill_1
XFILLER_30_701 VPWR VGND sg13g2_fill_2
XFILLER_14_263 VPWR VGND sg13g2_decap_8
XFILLER_9_46 VPWR VGND sg13g2_decap_8
X_2411__287 VPWR VGND net286 sg13g2_tiehi
XFILLER_10_491 VPWR VGND sg13g2_decap_8
XFILLER_6_440 VPWR VGND sg13g2_decap_8
X_2421_ net266 VGND VPWR _0367_ daisychain\[111\] clknet_leaf_4_clk sg13g2_dfrbpq_1
X_2352_ net404 VGND VPWR _0298_ daisychain\[42\] clknet_leaf_1_clk sg13g2_dfrbpq_1
X_2283_ VGND VPWR _0857_ _1012_ _0498_ net83 sg13g2_a21oi_1
X_1303_ VPWR _0009_ state\[108\] VGND sg13g2_inv_1
XFILLER_49_193 VPWR VGND sg13g2_decap_8
XFILLER_37_322 VPWR VGND sg13g2_decap_8
XFILLER_37_366 VPWR VGND sg13g2_fill_1
XFILLER_25_528 VPWR VGND sg13g2_fill_1
XFILLER_18_580 VPWR VGND sg13g2_decap_8
XFILLER_33_594 VPWR VGND sg13g2_fill_1
XFILLER_20_200 VPWR VGND sg13g2_decap_8
X_1998_ net215 VPWR _0856_ VGND state\[114\] net175 sg13g2_o21ai_1
XFILLER_20_277 VPWR VGND sg13g2_decap_8
XFILLER_0_616 VPWR VGND sg13g2_decap_8
XFILLER_47_119 VPWR VGND sg13g2_decap_8
XFILLER_28_333 VPWR VGND sg13g2_decap_8
XFILLER_18_11 VPWR VGND sg13g2_decap_8
XFILLER_44_815 VPWR VGND sg13g2_fill_1
XFILLER_44_837 VPWR VGND sg13g2_decap_4
XFILLER_18_88 VPWR VGND sg13g2_decap_8
XFILLER_43_336 VPWR VGND sg13g2_decap_8
XFILLER_34_32 VPWR VGND sg13g2_decap_8
XFILLER_11_200 VPWR VGND sg13g2_decap_8
XFILLER_11_277 VPWR VGND sg13g2_decap_8
XFILLER_7_259 VPWR VGND sg13g2_decap_8
XFILLER_3_410 VPWR VGND sg13g2_decap_8
XFILLER_3_487 VPWR VGND sg13g2_decap_8
XFILLER_1_0 VPWR VGND sg13g2_decap_8
X_2556__312 VPWR VGND net311 sg13g2_tiehi
XFILLER_38_119 VPWR VGND sg13g2_decap_8
XFILLER_19_333 VPWR VGND sg13g2_decap_8
XFILLER_46_196 VPWR VGND sg13g2_decap_8
XFILLER_34_347 VPWR VGND sg13g2_decap_8
X_1921_ VPWR VGND _0798_ net97 _0797_ _0249_ _0350_ net50 sg13g2_a221oi_1
XFILLER_30_531 VPWR VGND sg13g2_fill_1
X_1852_ VGND VPWR net160 daisychain\[76\] _0747_ net66 sg13g2_a21oi_1
X_2313__483 VPWR VGND net482 sg13g2_tiehi
XFILLER_30_586 VPWR VGND sg13g2_decap_8
X_1783_ net197 _0212_ _0694_ _0695_ VPWR VGND sg13g2_a21o_1
XFILLER_6_270 VPWR VGND sg13g2_decap_8
X_2404_ net300 VGND VPWR _0350_ daisychain\[94\] clknet_leaf_6_clk sg13g2_dfrbpq_1
X_2335_ net438 VGND VPWR _0281_ daisychain\[25\] clknet_leaf_8_clk sg13g2_dfrbpq_1
X_2266_ _1004_ net132 state\[106\] VPWR VGND sg13g2_nand2_1
X_2197_ VGND VPWR _0728_ _0969_ _0455_ net111 sg13g2_a21oi_1
XFILLER_38_642 VPWR VGND sg13g2_decap_8
XFILLER_1_91 VPWR VGND sg13g2_decap_8
XFILLER_37_196 VPWR VGND sg13g2_decap_8
XFILLER_26_859 VPWR VGND sg13g2_fill_1
XFILLER_25_347 VPWR VGND sg13g2_decap_8
XFILLER_21_553 VPWR VGND sg13g2_fill_1
XFILLER_21_597 VPWR VGND sg13g2_fill_2
XFILLER_5_719 VPWR VGND sg13g2_decap_8
XFILLER_4_207 VPWR VGND sg13g2_decap_8
XFILLER_20_67 VPWR VGND sg13g2_decap_8
XFILLER_0_413 VPWR VGND sg13g2_decap_8
X_2364__381 VPWR VGND net380 sg13g2_tiehi
X_2395__319 VPWR VGND net318 sg13g2_tiehi
XFILLER_29_32 VPWR VGND sg13g2_decap_8
XFILLER_28_130 VPWR VGND sg13g2_decap_8
XFILLER_45_42 VPWR VGND sg13g2_decap_8
XFILLER_43_133 VPWR VGND sg13g2_decap_8
XFILLER_16_347 VPWR VGND sg13g2_decap_8
X_2482__314 VPWR VGND net313 sg13g2_tiehi
XFILLER_6_25 VPWR VGND sg13g2_decap_8
XANTENNA_7 VPWR VGND _0173_ sg13g2_antennanp
XFILLER_3_284 VPWR VGND sg13g2_decap_8
X_2120_ _0931_ net126 state\[33\] VPWR VGND sg13g2_nand2_1
X_2051_ net166 _0158_ _0895_ _0896_ VPWR VGND sg13g2_a21o_1
XFILLER_19_130 VPWR VGND sg13g2_decap_8
XFILLER_35_601 VPWR VGND sg13g2_decap_8
XFILLER_34_144 VPWR VGND sg13g2_decap_8
X_1904_ VGND VPWR net155 daisychain\[89\] _0786_ net60 sg13g2_a21oi_1
XFILLER_30_361 VPWR VGND sg13g2_decap_4
X_1835_ net202 _0226_ _0733_ _0734_ VPWR VGND sg13g2_a21o_1
X_1766_ net227 VPWR _0682_ VGND state\[56\] net199 sg13g2_o21ai_1
X_1697_ VPWR VGND _0630_ net74 _0629_ _0187_ _0294_ net27 sg13g2_a221oi_1
X_2318_ net472 VGND VPWR _0264_ daisychain\[8\] clknet_leaf_0_clk sg13g2_dfrbpq_1
X_2249_ VGND VPWR _0806_ _0995_ _0481_ net96 sg13g2_a21oi_1
XFILLER_26_601 VPWR VGND sg13g2_fill_1
XFILLER_25_144 VPWR VGND sg13g2_decap_8
XFILLER_40_147 VPWR VGND sg13g2_decap_8
XFILLER_15_67 VPWR VGND sg13g2_decap_8
XFILLER_22_884 VPWR VGND sg13g2_fill_2
XFILLER_21_361 VPWR VGND sg13g2_decap_8
XFILLER_31_11 VPWR VGND sg13g2_decap_8
XFILLER_5_538 VPWR VGND sg13g2_decap_8
XFILLER_31_88 VPWR VGND sg13g2_decap_8
Xoutput11 net11 uio_out[3] VPWR VGND sg13g2_buf_1
Xoutput22 net22 uo_out[6] VPWR VGND sg13g2_buf_1
Xoutput9 net9 uio_out[1] VPWR VGND sg13g2_buf_1
XFILLER_0_210 VPWR VGND sg13g2_decap_8
XFILLER_0_287 VPWR VGND sg13g2_decap_8
XFILLER_49_759 VPWR VGND sg13g2_decap_8
XFILLER_48_203 VPWR VGND sg13g2_decap_8
XFILLER_29_461 VPWR VGND sg13g2_decap_8
XFILLER_16_144 VPWR VGND sg13g2_decap_8
XFILLER_31_158 VPWR VGND sg13g2_decap_8
XFILLER_12_361 VPWR VGND sg13g2_decap_8
XFILLER_8_354 VPWR VGND sg13g2_decap_8
X_1620_ VGND VPWR net123 daisychain\[18\] _0573_ net30 sg13g2_a21oi_1
X_1551_ net177 _0178_ _0520_ _0521_ VPWR VGND sg13g2_a21o_1
X_1482_ VPWR _0208_ daisychain\[57\] VGND sg13g2_inv_1
X_2558__248 VPWR VGND net247 sg13g2_tiehi
XFILLER_39_203 VPWR VGND sg13g2_decap_8
X_2103_ VGND VPWR _0587_ _0922_ _0408_ net93 sg13g2_a21oi_1
X_2034_ net210 VPWR _0883_ VGND state\[123\] net165 sg13g2_o21ai_1
XFILLER_47_280 VPWR VGND sg13g2_decap_8
XFILLER_35_486 VPWR VGND sg13g2_decap_4
XFILLER_22_158 VPWR VGND sg13g2_decap_8
X_1818_ net232 VPWR _0721_ VGND state\[69\] net205 sg13g2_o21ai_1
X_1749_ VPWR VGND _0669_ net102 _0668_ _0202_ _0307_ net54 sg13g2_a221oi_1
XFILLER_45_217 VPWR VGND sg13g2_decap_8
XFILLER_38_280 VPWR VGND sg13g2_decap_8
XFILLER_27_932 VPWR VGND sg13g2_fill_1
XFILLER_26_11 VPWR VGND sg13g2_decap_8
XFILLER_26_464 VPWR VGND sg13g2_fill_2
XFILLER_26_453 VPWR VGND sg13g2_decap_8
XFILLER_26_88 VPWR VGND sg13g2_decap_8
XFILLER_14_637 VPWR VGND sg13g2_fill_2
XFILLER_14_626 VPWR VGND sg13g2_decap_4
XFILLER_13_158 VPWR VGND sg13g2_decap_8
XFILLER_42_21 VPWR VGND sg13g2_decap_8
XFILLER_42_98 VPWR VGND sg13g2_decap_8
XFILLER_5_368 VPWR VGND sg13g2_decap_8