* NGSPICE file created from heichips25_pudding.ext - technology: ihp-sg13g2

* Black-box entry subcircuit for sg13g2_decap_8 abstract view
.subckt sg13g2_decap_8 VDD VSS
.ends

* Black-box entry subcircuit for sg13g2_nand2_1 abstract view
.subckt sg13g2_nand2_1 Y A B VDD VSS
.ends

* Black-box entry subcircuit for sg13g2_fill_2 abstract view
.subckt sg13g2_fill_2 VDD VSS
.ends

* Black-box entry subcircuit for sg13g2_decap_4 abstract view
.subckt sg13g2_decap_4 VDD VSS
.ends

* Black-box entry subcircuit for sg13g2_fill_1 abstract view
.subckt sg13g2_fill_1 VDD VSS
.ends

* Black-box entry subcircuit for sg13g2_tiehi abstract view
.subckt sg13g2_tiehi VDD VSS L_HI
.ends

* Black-box entry subcircuit for sg13g2_mux2_1 abstract view
.subckt sg13g2_mux2_1 A0 A1 S X VDD VSS
.ends

* Black-box entry subcircuit for sg13g2_buf_1 abstract view
.subckt sg13g2_buf_1 A X VDD VSS
.ends

* Black-box entry subcircuit for sg13g2_a21oi_1 abstract view
.subckt sg13g2_a21oi_1 VSS VDD A1 A2 Y B1
.ends

* Black-box entry subcircuit for sg13g2_inv_1 abstract view
.subckt sg13g2_inv_1 VDD Y A VSS
.ends

* Black-box entry subcircuit for sg13g2_dfrbpq_1 abstract view
.subckt sg13g2_dfrbpq_1 RESET_B VSS VDD D Q CLK
.ends

* Black-box entry subcircuit for sg13g2_o21ai_1 abstract view
.subckt sg13g2_o21ai_1 B1 VDD Y VSS A1 A2
.ends

* Black-box entry subcircuit for sg13g2_buf_8 abstract view
.subckt sg13g2_buf_8 A X VDD VSS
.ends

* Black-box entry subcircuit for sg13g2_inv_2 abstract view
.subckt sg13g2_inv_2 Y A VDD VSS
.ends

* Black-box entry subcircuit for sg13g2_buf_16 abstract view
.subckt sg13g2_buf_16 X A VDD VSS
.ends

* Black-box entry subcircuit for sg13g2_inv_8 abstract view
.subckt sg13g2_inv_8 Y A VDD VSS
.ends

* Black-box entry subcircuit for dac128module abstract view
.subckt dac128module ON[64] ONB[64] ON[65] ONB[65] ON[66] ONB[66] ON[67] ONB[67] ON[68]
+ ONB[68] ON[69] ONB[69] ON[70] ONB[70] ON[71] ONB[71] ON[72] ONB[72] EN[2] ENB[2]
+ ON[73] ONB[73] ON[74] ONB[74] ON[75] ONB[75] ON[76] ONB[76] ON[77] ONB[77] ON[78]
+ ONB[78] ON[79] ONB[79] ON[80] ONB[80] ON[81] ONB[81] ON[82] ONB[82] ON[83] ONB[83]
+ ON[84] ONB[84] ON[85] ONB[85] ON[86] ONB[86] ON[87] ONB[87] ON[88] ONB[88] ON[89]
+ ONB[89] ON[90] ONB[90] ON[91] ONB[91] ON[92] ONB[92] ON[93] ONB[93] ON[94] ONB[94]
+ ON[95] ONB[95] ON[96] ONB[96] ON[97] ONB[97] ON[98] ONB[98] ON[99] ONB[99] ON[100]
+ ONB[100] ON[101] ONB[101] ON[102] ONB[102] ON[103] ONB[103] ON[104] ONB[104] ON[105]
+ ONB[105] ON[106] ONB[106] ON[107] ONB[107] ON[108] ONB[108] ON[109] ONB[109] ON[110]
+ ONB[110] ON[111] ONB[111] ON[112] ONB[112] ON[113] ONB[113] ON[114] ONB[114] ON[115]
+ ONB[115] ON[116] ONB[116] ON[117] ONB[117] ON[118] ONB[118] ON[119] ONB[119] ON[120]
+ ONB[120] ON[121] ONB[121] ON[122] ONB[122] EN[3] ENB[3] ON[123] ONB[123] ON[124]
+ ONB[124] ON[125] ONB[125] ON[126] ONB[126] ON[127] ONB[127] ON[0] ONB[0] ON[1] ONB[1]
+ ON[2] ONB[2] ON[3] ONB[3] ON[4] ONB[4] ON[5] ONB[5] ON[6] EN[0] ENB[0] ONB[6] ON[7]
+ ONB[7] ON[8] ONB[8] ON[9] ONB[9] ON[10] ONB[10] ON[11] ONB[11] ON[12] ONB[12] ON[13]
+ ONB[13] ON[14] ONB[14] ON[15] ONB[15] ON[16] ONB[16] ON[17] ONB[17] ON[18] ONB[18]
+ ON[19] ONB[19] ON[20] ONB[20] ON[21] ONB[21] ON[22] ONB[22] ON[23] ONB[23] ON[24]
+ ONB[24] ON[25] ONB[25] ON[26] ONB[26] ON[27] ONB[27] ON[28] ONB[28] ON[29] ONB[29]
+ ON[30] ONB[30] ON[31] ONB[31] ON[33] ONB[33] ON[32] ONB[32] ON[34] ONB[34] ON[35]
+ ONB[35] ON[36] ONB[36] ON[37] ONB[37] ON[38] ONB[38] ON[39] ONB[39] ON[40] ONB[40]
+ ON[41] ONB[41] ON[42] ONB[42] ON[43] ONB[43] ON[44] ONB[44] ON[45] ONB[45] ON[46]
+ ONB[46] ON[47] ONB[47] ON[48] ONB[48] ON[49] ONB[49] ON[50] ONB[50] ON[51] ONB[51]
+ ON[52] ONB[52] ON[53] ONB[53] ON[54] ONB[54] ON[55] ONB[55] ON[56] ONB[56] ON[57]
+ ONB[57] ON[58] ONB[58] ON[59] ONB[59] ON[60] ONB[60] ON[61] ONB[61] ON[62] ONB[62]
+ ON[63] ONB[63] EN[1] ENB[1] VSS VDD
.ends

* Black-box entry subcircuit for sg13g2_or2_1 abstract view
.subckt sg13g2_or2_1 VSS VDD X B A
.ends

* Black-box entry subcircuit for sg13g2_nor2_1 abstract view
.subckt sg13g2_nor2_1 A B Y VDD VSS
.ends

.subckt heichips25_pudding VGND VPWR clk ena i_in i_out rst_n ui_in[0] ui_in[1] ui_in[2]
+ ui_in[3] ui_in[4] ui_in[5] ui_in[6] ui_in[7] uio_in[0] uio_in[1] uio_in[2] uio_in[3]
+ uio_in[4] uio_in[5] uio_in[6] uio_in[7] uio_oe[0] uio_oe[1] uio_oe[2] uio_oe[3]
+ uio_oe[4] uio_oe[5] uio_oe[6] uio_oe[7] uio_out[0] uio_out[1] uio_out[2] uio_out[3]
+ uio_out[4] uio_out[5] uio_out[6] uio_out[7] uo_out[0] uo_out[1] uo_out[2] uo_out[3]
+ uo_out[4] uo_out[5] uo_out[6] uo_out[7]
XFILLER_39_266 VPWR VGND sg13g2_decap_8
X_2106_ _0743_ net100 state\[25\] VPWR VGND sg13g2_nand2_1
X_2037_ _0703_ net156 _0702_ VPWR VGND sg13g2_nand2_1
XFILLER_36_973 VPWR VGND sg13g2_decap_8
XFILLER_35_483 VPWR VGND sg13g2_decap_8
XFILLER_10_317 VPWR VGND sg13g2_decap_8
XFILLER_22_144 VPWR VGND sg13g2_decap_8
XFILLER_2_505 VPWR VGND sg13g2_decap_8
XFILLER_7_7 VPWR VGND sg13g2_fill_2
XFILLER_46_704 VPWR VGND sg13g2_decap_4
XFILLER_18_439 VPWR VGND sg13g2_decap_8
XFILLER_45_203 VPWR VGND sg13g2_decap_8
XFILLER_26_483 VPWR VGND sg13g2_decap_8
XFILLER_13_133 VPWR VGND sg13g2_decap_8
XFILLER_41_420 VPWR VGND sg13g2_decap_8
XFILLER_26_96 VPWR VGND sg13g2_fill_2
XFILLER_14_667 VPWR VGND sg13g2_decap_8
XFILLER_14_678 VPWR VGND sg13g2_fill_2
XFILLER_9_104 VPWR VGND sg13g2_decap_8
XFILLER_41_497 VPWR VGND sg13g2_decap_8
XFILLER_42_84 VPWR VGND sg13g2_decap_8
XFILLER_5_365 VPWR VGND sg13g2_decap_8
XFILLER_1_560 VPWR VGND sg13g2_decap_8
XFILLER_3_78 VPWR VGND sg13g2_decap_8
XFILLER_49_564 VPWR VGND sg13g2_decap_8
XFILLER_3_1007 VPWR VGND sg13g2_fill_1
XFILLER_36_203 VPWR VGND sg13g2_decap_8
XFILLER_17_450 VPWR VGND sg13g2_decap_8
XFILLER_44_280 VPWR VGND sg13g2_decap_8
XFILLER_33_965 VPWR VGND sg13g2_decap_8
XFILLER_33_943 VPWR VGND sg13g2_fill_1
XFILLER_32_431 VPWR VGND sg13g2_decap_8
XFILLER_33_998 VPWR VGND sg13g2_fill_1
XFILLER_33_987 VPWR VGND sg13g2_decap_8
XFILLER_33_976 VPWR VGND sg13g2_fill_1
XFILLER_20_626 VPWR VGND sg13g2_decap_8
X_2488__394 VPWR VGND net393 sg13g2_tiehi
XFILLER_8_192 VPWR VGND sg13g2_decap_8
X_1606_ state\[38\] daisychain\[38\] net143 _1002_ VPWR VGND sg13g2_mux2_1
Xfanout138 net139 net138 VPWR VGND sg13g2_buf_1
Xfanout127 net131 net127 VPWR VGND sg13g2_buf_1
Xfanout116 net119 net116 VPWR VGND sg13g2_buf_1
Xfanout105 net108 net105 VPWR VGND sg13g2_buf_1
X_1537_ _0947_ net161 _0946_ VPWR VGND sg13g2_nand2_1
Xfanout149 net150 net149 VPWR VGND sg13g2_buf_1
X_1468_ VGND VPWR net95 daisychain\[9\] _0892_ net47 sg13g2_a21oi_1
X_1399_ VPWR _0032_ state\[13\] VGND sg13g2_inv_1
XFILLER_27_247 VPWR VGND sg13g2_decap_8
XFILLER_42_217 VPWR VGND sg13g2_decap_8
XFILLER_36_770 VPWR VGND sg13g2_decap_8
XFILLER_35_280 VPWR VGND sg13g2_decap_8
XFILLER_23_431 VPWR VGND sg13g2_decap_4
XFILLER_23_464 VPWR VGND sg13g2_decap_8
XFILLER_10_114 VPWR VGND sg13g2_decap_8
XFILLER_7_619 VPWR VGND sg13g2_decap_8
XFILLER_6_118 VPWR VGND sg13g2_decap_8
XFILLER_3_803 VPWR VGND sg13g2_fill_2
XFILLER_2_302 VPWR VGND sg13g2_decap_8
XFILLER_5_4 VPWR VGND sg13g2_fill_1
XFILLER_2_379 VPWR VGND sg13g2_decap_8
XFILLER_46_501 VPWR VGND sg13g2_decap_8
XFILLER_18_236 VPWR VGND sg13g2_decap_8
XFILLER_37_84 VPWR VGND sg13g2_decap_8
XFILLER_46_578 VPWR VGND sg13g2_decap_8
XFILLER_33_228 VPWR VGND sg13g2_decap_8
XFILLER_15_976 VPWR VGND sg13g2_decap_4
XFILLER_14_486 VPWR VGND sg13g2_decap_8
XFILLER_30_935 VPWR VGND sg13g2_fill_1
XFILLER_41_294 VPWR VGND sg13g2_decap_8
XFILLER_30_968 VPWR VGND sg13g2_fill_1
X_2440_ net328 VGND VPWR _0256_ state\[0\] clknet_leaf_1_clk sg13g2_dfrbpq_1
XFILLER_5_162 VPWR VGND sg13g2_decap_8
X_2371_ net210 VGND VPWR _0187_ daisychain\[59\] clknet_leaf_12_clk sg13g2_dfrbpq_1
X_1322_ VPWR _0117_ state\[90\] VGND sg13g2_inv_1
XFILLER_2_880 VPWR VGND sg13g2_decap_8
X_2340__273 VPWR VGND net272 sg13g2_tiehi
X_2555__248 VPWR VGND net247 sg13g2_tiehi
XFILLER_49_361 VPWR VGND sg13g2_decap_8
XFILLER_37_567 VPWR VGND sg13g2_decap_8
X_2416__377 VPWR VGND net376 sg13g2_tiehi
XFILLER_24_228 VPWR VGND sg13g2_decap_8
XFILLER_20_445 VPWR VGND sg13g2_decap_8
XFILLER_0_839 VPWR VGND sg13g2_fill_2
XFILLER_15_217 VPWR VGND sg13g2_decap_8
XFILLER_16_718 VPWR VGND sg13g2_decap_8
XFILLER_43_504 VPWR VGND sg13g2_decap_8
XFILLER_12_924 VPWR VGND sg13g2_fill_1
XFILLER_23_53 VPWR VGND sg13g2_decap_8
XFILLER_11_467 VPWR VGND sg13g2_decap_8
XFILLER_7_416 VPWR VGND sg13g2_decap_8
XFILLER_3_600 VPWR VGND sg13g2_decap_8
XFILLER_3_677 VPWR VGND sg13g2_decap_8
XFILLER_2_176 VPWR VGND sg13g2_decap_8
XFILLER_0_35 VPWR VGND sg13g2_decap_8
XFILLER_19_578 VPWR VGND sg13g2_decap_8
XFILLER_46_375 VPWR VGND sg13g2_decap_8
XFILLER_34_504 VPWR VGND sg13g2_decap_8
XFILLER_14_283 VPWR VGND sg13g2_decap_8
X_1940_ VGND VPWR _0623_ _0624_ _0232_ _0625_ sg13g2_a21oi_1
X_2450__290 VPWR VGND net289 sg13g2_tiehi
XFILLER_42_581 VPWR VGND sg13g2_decap_8
X_1871_ state\[91\] daisychain\[91\] net149 _0570_ VPWR VGND sg13g2_mux2_1
XFILLER_6_482 VPWR VGND sg13g2_decap_8
X_2423_ net362 VGND VPWR _0239_ daisychain\[111\] clknet_leaf_2_clk sg13g2_dfrbpq_1
X_2561__296 VPWR VGND net295 sg13g2_tiehi
X_2354_ net244 VGND VPWR _0170_ daisychain\[42\] clknet_leaf_12_clk sg13g2_dfrbpq_1
X_1305_ VPWR _0008_ state\[107\] VGND sg13g2_inv_1
X_2285_ VGND VPWR _0663_ _0832_ _0370_ net76 sg13g2_a21oi_1
XFILLER_37_364 VPWR VGND sg13g2_decap_8
XFILLER_40_518 VPWR VGND sg13g2_decap_8
XFILLER_21_721 VPWR VGND sg13g2_decap_8
XFILLER_20_242 VPWR VGND sg13g2_decap_8
XFILLER_0_658 VPWR VGND sg13g2_decap_8
XFILLER_18_75 VPWR VGND sg13g2_decap_8
X_2319__315 VPWR VGND net314 sg13g2_tiehi
XFILLER_43_301 VPWR VGND sg13g2_decap_8
XFILLER_28_375 VPWR VGND sg13g2_decap_8
XFILLER_43_378 VPWR VGND sg13g2_decap_8
XFILLER_34_63 VPWR VGND sg13g2_decap_8
XFILLER_11_264 VPWR VGND sg13g2_decap_8
XFILLER_7_213 VPWR VGND sg13g2_decap_8
XFILLER_3_463 VPWR VGND sg13g2_decap_8
X_2070_ _0725_ net100 state\[7\] VPWR VGND sg13g2_nand2_1
XFILLER_19_364 VPWR VGND sg13g2_decap_8
XFILLER_47_651 VPWR VGND sg13g2_decap_8
XFILLER_46_172 VPWR VGND sg13g2_decap_8
XFILLER_34_301 VPWR VGND sg13g2_decap_8
XFILLER_34_378 VPWR VGND sg13g2_decap_8
XFILLER_22_529 VPWR VGND sg13g2_fill_1
X_1923_ VGND VPWR net105 daisychain\[100\] _0612_ net52 sg13g2_a21oi_1
X_1854_ net194 VPWR _0557_ VGND daisychain\[87\] net38 sg13g2_o21ai_1
X_1785_ VGND VPWR _0499_ _0500_ _0201_ _0501_ sg13g2_a21oi_1
X_2406_ net396 VGND VPWR _0222_ daisychain\[94\] clknet_leaf_3_clk sg13g2_dfrbpq_1
X_2337_ net278 VGND VPWR _0153_ daisychain\[25\] clknet_leaf_15_clk sg13g2_dfrbpq_1
X_2268_ _0824_ net104 state\[106\] VPWR VGND sg13g2_nand2_1
X_2199_ VGND VPWR _0491_ _0789_ _0327_ net86 sg13g2_a21oi_1
XFILLER_37_161 VPWR VGND sg13g2_decap_8
XFILLER_25_356 VPWR VGND sg13g2_decap_8
XFILLER_13_518 VPWR VGND sg13g2_decap_8
XFILLER_40_315 VPWR VGND sg13g2_decap_8
XFILLER_21_540 VPWR VGND sg13g2_fill_2
X_2464__234 VPWR VGND net233 sg13g2_tiehi
XFILLER_20_32 VPWR VGND sg13g2_fill_2
XFILLER_0_455 VPWR VGND sg13g2_decap_8
XFILLER_29_52 VPWR VGND sg13g2_decap_8
XFILLER_1_989 VPWR VGND sg13g2_fill_2
XFILLER_48_448 VPWR VGND sg13g2_decap_8
XFILLER_17_846 VPWR VGND sg13g2_fill_2
XFILLER_29_684 VPWR VGND sg13g2_fill_1
XFILLER_28_172 VPWR VGND sg13g2_decap_8
XFILLER_16_367 VPWR VGND sg13g2_decap_8
XFILLER_44_665 VPWR VGND sg13g2_decap_8
XFILLER_45_84 VPWR VGND sg13g2_decap_8
XFILLER_43_175 VPWR VGND sg13g2_decap_8
XFILLER_31_326 VPWR VGND sg13g2_decap_8
X_2512__268 VPWR VGND net267 sg13g2_tiehi
XFILLER_12_562 VPWR VGND sg13g2_decap_8
XFILLER_8_500 VPWR VGND sg13g2_decap_8
XFILLER_8_577 VPWR VGND sg13g2_decap_8
X_1570_ VGND VPWR _0971_ _0972_ _0158_ _0973_ sg13g2_a21oi_1
X_2443__318 VPWR VGND net317 sg13g2_tiehi
XFILLER_3_260 VPWR VGND sg13g2_decap_8
XFILLER_20_4 VPWR VGND sg13g2_fill_1
X_2122_ _0751_ net113 state\[33\] VPWR VGND sg13g2_nand2_1
XFILLER_39_448 VPWR VGND sg13g2_decap_8
XFILLER_19_161 VPWR VGND sg13g2_decap_8
X_2053_ VGND VPWR net91 daisychain\[126\] _0716_ net46 sg13g2_a21oi_1
XFILLER_35_687 VPWR VGND sg13g2_decap_8
XFILLER_34_175 VPWR VGND sg13g2_decap_8
XFILLER_22_326 VPWR VGND sg13g2_decap_8
XFILLER_31_882 VPWR VGND sg13g2_fill_1
X_1906_ state\[98\] daisychain\[98\] net148 _0598_ VPWR VGND sg13g2_mux2_1
X_1837_ _0543_ net173 _0542_ VPWR VGND sg13g2_nand2_1
X_1768_ VGND VPWR net129 daisychain\[69\] _0488_ net64 sg13g2_a21oi_1
X_1699_ net192 VPWR _0433_ VGND daisychain\[56\] net36 sg13g2_o21ai_1
XFILLER_44_1000 VPWR VGND sg13g2_fill_2
XFILLER_46_919 VPWR VGND sg13g2_fill_2
XFILLER_26_632 VPWR VGND sg13g2_decap_8
XFILLER_13_315 VPWR VGND sg13g2_decap_8
XFILLER_14_838 VPWR VGND sg13g2_decap_8
XFILLER_41_602 VPWR VGND sg13g2_decap_8
XFILLER_25_153 VPWR VGND sg13g2_decap_8
XFILLER_40_112 VPWR VGND sg13g2_decap_8
XFILLER_15_98 VPWR VGND sg13g2_decap_8
XFILLER_40_189 VPWR VGND sg13g2_decap_8
XFILLER_31_53 VPWR VGND sg13g2_decap_8
XFILLER_5_547 VPWR VGND sg13g2_decap_8
Xoutput20 net20 uo_out[5] VPWR VGND sg13g2_buf_1
Xoutput7 net7 uio_out[0] VPWR VGND sg13g2_buf_1
XFILLER_1_742 VPWR VGND sg13g2_fill_1
XFILLER_0_252 VPWR VGND sg13g2_decap_8
XFILLER_49_746 VPWR VGND sg13g2_decap_8
XFILLER_48_245 VPWR VGND sg13g2_decap_8
XFILLER_16_164 VPWR VGND sg13g2_decap_8
XFILLER_44_462 VPWR VGND sg13g2_decap_8
XFILLER_31_123 VPWR VGND sg13g2_decap_8
XFILLER_9_842 VPWR VGND sg13g2_fill_1
XFILLER_9_831 VPWR VGND sg13g2_fill_2
XFILLER_9_886 VPWR VGND sg13g2_fill_1
X_1622_ _1015_ net168 _1014_ VPWR VGND sg13g2_nand2_1
XFILLER_8_374 VPWR VGND sg13g2_decap_8
X_2380__449 VPWR VGND net448 sg13g2_tiehi
X_1553_ VGND VPWR net99 daisychain\[26\] _0960_ net49 sg13g2_a21oi_1
X_1484_ net181 VPWR _0905_ VGND daisychain\[13\] net25 sg13g2_o21ai_1
XFILLER_4_591 VPWR VGND sg13g2_decap_8
XFILLER_39_245 VPWR VGND sg13g2_decap_8
X_2105_ VGND VPWR _0947_ _0742_ _0280_ net71 sg13g2_a21oi_1
X_2036_ state\[124\] daisychain\[124\] net134 _0702_ VPWR VGND sg13g2_mux2_1
XFILLER_36_963 VPWR VGND sg13g2_decap_4
XFILLER_35_462 VPWR VGND sg13g2_decap_8
XFILLER_22_123 VPWR VGND sg13g2_decap_8
X_2350__253 VPWR VGND net252 sg13g2_tiehi
X_2426__357 VPWR VGND net356 sg13g2_tiehi
XFILLER_18_418 VPWR VGND sg13g2_decap_8
XFILLER_46_727 VPWR VGND sg13g2_fill_2
XFILLER_45_259 VPWR VGND sg13g2_decap_8
XFILLER_14_602 VPWR VGND sg13g2_fill_1
XFILLER_26_53 VPWR VGND sg13g2_decap_8
XFILLER_26_473 VPWR VGND sg13g2_fill_1
XFILLER_26_462 VPWR VGND sg13g2_decap_8
XFILLER_13_112 VPWR VGND sg13g2_decap_8
XFILLER_42_944 VPWR VGND sg13g2_decap_8
XFILLER_41_476 VPWR VGND sg13g2_decap_8
XFILLER_13_189 VPWR VGND sg13g2_decap_8
XFILLER_42_63 VPWR VGND sg13g2_decap_8
XFILLER_10_874 VPWR VGND sg13g2_decap_8
XFILLER_10_896 VPWR VGND sg13g2_decap_8
XFILLER_5_344 VPWR VGND sg13g2_decap_8
X_2327__299 VPWR VGND net298 sg13g2_tiehi
XFILLER_3_57 VPWR VGND sg13g2_decap_8
XFILLER_49_543 VPWR VGND sg13g2_decap_8
XFILLER_3_1019 VPWR VGND sg13g2_decap_8
XFILLER_36_259 VPWR VGND sg13g2_decap_8
XFILLER_18_996 VPWR VGND sg13g2_fill_1
XFILLER_33_900 VPWR VGND sg13g2_decap_8
XFILLER_32_410 VPWR VGND sg13g2_decap_8
XFILLER_32_487 VPWR VGND sg13g2_decap_8
XFILLER_8_171 VPWR VGND sg13g2_decap_8
X_1605_ VGND VPWR _0999_ _1000_ _0165_ _1001_ sg13g2_a21oi_1
X_1536_ state\[24\] daisychain\[24\] net138 _0946_ VPWR VGND sg13g2_mux2_1
Xfanout128 net131 net128 VPWR VGND sg13g2_buf_1
Xfanout117 net119 net117 VPWR VGND sg13g2_buf_1
Xfanout106 net107 net106 VPWR VGND sg13g2_buf_1
Xfanout139 net155 net139 VPWR VGND sg13g2_buf_1
X_1467_ _0891_ net159 _0890_ VPWR VGND sg13g2_nand2_1
X_2495__366 VPWR VGND net365 sg13g2_tiehi
X_1398_ VPWR _0033_ state\[14\] VGND sg13g2_inv_1
XFILLER_28_727 VPWR VGND sg13g2_fill_2
XFILLER_27_226 VPWR VGND sg13g2_decap_8
XFILLER_43_708 VPWR VGND sg13g2_fill_1
X_2019_ net180 VPWR _0689_ VGND daisychain\[120\] net23 sg13g2_o21ai_1
XFILLER_23_410 VPWR VGND sg13g2_decap_8
XFILLER_23_487 VPWR VGND sg13g2_decap_8
XFILLER_12_44 VPWR VGND sg13g2_fill_1
XFILLER_3_837 VPWR VGND sg13g2_fill_2
XFILLER_2_358 VPWR VGND sg13g2_decap_8
XFILLER_18_215 VPWR VGND sg13g2_decap_8
XFILLER_19_716 VPWR VGND sg13g2_decap_8
XFILLER_46_557 VPWR VGND sg13g2_decap_8
XFILLER_37_63 VPWR VGND sg13g2_decap_8
XFILLER_33_207 VPWR VGND sg13g2_decap_8
XFILLER_15_944 VPWR VGND sg13g2_decap_8
XFILLER_14_465 VPWR VGND sg13g2_decap_8
XFILLER_30_914 VPWR VGND sg13g2_fill_1
XFILLER_26_292 VPWR VGND sg13g2_decap_8
XFILLER_42_796 VPWR VGND sg13g2_fill_1
XFILLER_42_785 VPWR VGND sg13g2_decap_8
XFILLER_41_273 VPWR VGND sg13g2_decap_8
XFILLER_30_947 VPWR VGND sg13g2_fill_2
XFILLER_5_141 VPWR VGND sg13g2_decap_8
X_2370_ net212 VGND VPWR _0186_ daisychain\[58\] clknet_leaf_12_clk sg13g2_dfrbpq_1
X_1321_ VPWR _0118_ state\[91\] VGND sg13g2_inv_1
X_2379__451 VPWR VGND net450 sg13g2_tiehi
XFILLER_49_340 VPWR VGND sg13g2_decap_8
XFILLER_37_546 VPWR VGND sg13g2_decap_8
XFILLER_24_207 VPWR VGND sg13g2_decap_8
XFILLER_33_741 VPWR VGND sg13g2_fill_2
XFILLER_32_284 VPWR VGND sg13g2_decap_8
XFILLER_20_424 VPWR VGND sg13g2_decap_8
XFILLER_0_818 VPWR VGND sg13g2_decap_8
X_2499_ net349 VGND VPWR _0315_ state\[59\] clknet_leaf_12_clk sg13g2_dfrbpq_1
X_1519_ net182 VPWR _0933_ VGND daisychain\[20\] net26 sg13g2_o21ai_1
XFILLER_28_546 VPWR VGND sg13g2_decap_4
XFILLER_11_446 VPWR VGND sg13g2_decap_8
XFILLER_23_32 VPWR VGND sg13g2_decap_8
XFILLER_23_284 VPWR VGND sg13g2_decap_8
XFILLER_3_689 VPWR VGND sg13g2_decap_4
XFILLER_3_656 VPWR VGND sg13g2_decap_8
XFILLER_2_155 VPWR VGND sg13g2_decap_8
XFILLER_48_84 VPWR VGND sg13g2_decap_8
XFILLER_0_14 VPWR VGND sg13g2_decap_8
XFILLER_47_866 VPWR VGND sg13g2_decap_8
XFILLER_46_354 VPWR VGND sg13g2_decap_8
X_2515__244 VPWR VGND net243 sg13g2_tiehi
XFILLER_15_752 VPWR VGND sg13g2_decap_4
XFILLER_14_262 VPWR VGND sg13g2_decap_8
XFILLER_42_560 VPWR VGND sg13g2_decap_8
X_1870_ VGND VPWR _0567_ _0568_ _0218_ _0569_ sg13g2_a21oi_1
XFILLER_31_1024 VPWR VGND sg13g2_decap_4
XFILLER_6_461 VPWR VGND sg13g2_decap_8
X_2422_ net364 VGND VPWR _0238_ daisychain\[110\] clknet_leaf_3_clk sg13g2_dfrbpq_1
X_2353_ net246 VGND VPWR _0169_ daisychain\[41\] clknet_leaf_14_clk sg13g2_dfrbpq_1
XFILLER_9_1014 VPWR VGND sg13g2_decap_8
X_1304_ VPWR _0009_ state\[108\] VGND sg13g2_inv_1
X_2284_ _0832_ net102 state\[114\] VPWR VGND sg13g2_nand2_1
XFILLER_37_343 VPWR VGND sg13g2_decap_8
XFILLER_21_700 VPWR VGND sg13g2_decap_8
XFILLER_20_221 VPWR VGND sg13g2_decap_8
X_1999_ net185 VPWR _0673_ VGND daisychain\[116\] net29 sg13g2_o21ai_1
XFILLER_20_298 VPWR VGND sg13g2_decap_8
XFILLER_0_637 VPWR VGND sg13g2_decap_8
XFILLER_18_54 VPWR VGND sg13g2_decap_8
XFILLER_28_354 VPWR VGND sg13g2_decap_8
XFILLER_44_836 VPWR VGND sg13g2_decap_8
XFILLER_43_357 VPWR VGND sg13g2_decap_8
XFILLER_31_508 VPWR VGND sg13g2_decap_8
XFILLER_34_42 VPWR VGND sg13g2_decap_8
XFILLER_31_519 VPWR VGND sg13g2_decap_4
XFILLER_11_243 VPWR VGND sg13g2_decap_8
X_2549__384 VPWR VGND net383 sg13g2_tiehi
XFILLER_7_269 VPWR VGND sg13g2_decap_8
XFILLER_4_932 VPWR VGND sg13g2_fill_1
XFILLER_4_987 VPWR VGND sg13g2_fill_2
XFILLER_3_442 VPWR VGND sg13g2_decap_8
XFILLER_47_630 VPWR VGND sg13g2_decap_8
XFILLER_19_343 VPWR VGND sg13g2_decap_8
XFILLER_46_151 VPWR VGND sg13g2_decap_8
XFILLER_35_836 VPWR VGND sg13g2_decap_8
XFILLER_34_357 VPWR VGND sg13g2_decap_8
X_1922_ _0611_ net163 _0610_ VPWR VGND sg13g2_nand2_1
X_1853_ VGND VPWR net125 daisychain\[86\] _0556_ net61 sg13g2_a21oi_1
XFILLER_30_574 VPWR VGND sg13g2_fill_1
X_1784_ net198 VPWR _0501_ VGND daisychain\[73\] net42 sg13g2_o21ai_1
X_2405_ net398 VGND VPWR _0221_ daisychain\[93\] clknet_leaf_4_clk sg13g2_dfrbpq_1
XFILLER_41_0 VPWR VGND sg13g2_decap_8
X_2336_ net280 VGND VPWR _0152_ daisychain\[24\] clknet_leaf_15_clk sg13g2_dfrbpq_1
X_2267_ VGND VPWR _0627_ _0823_ _0361_ net74 sg13g2_a21oi_1
XFILLER_29_129 VPWR VGND sg13g2_decap_8
XFILLER_37_140 VPWR VGND sg13g2_decap_8
X_2198_ _0789_ net130 state\[71\] VPWR VGND sg13g2_nand2_1
X_2390__429 VPWR VGND net428 sg13g2_tiehi
XFILLER_38_696 VPWR VGND sg13g2_fill_2
XFILLER_25_335 VPWR VGND sg13g2_decap_8
X_2360__233 VPWR VGND net232 sg13g2_tiehi
XFILLER_20_88 VPWR VGND sg13g2_decap_8
XFILLER_0_434 VPWR VGND sg13g2_decap_8
XFILLER_48_427 VPWR VGND sg13g2_decap_8
XFILLER_29_31 VPWR VGND sg13g2_decap_8
XFILLER_17_814 VPWR VGND sg13g2_decap_8
X_2471__206 VPWR VGND net205 sg13g2_tiehi
X_2436__337 VPWR VGND net336 sg13g2_tiehi
XFILLER_28_151 VPWR VGND sg13g2_decap_8
XFILLER_16_346 VPWR VGND sg13g2_decap_8
XFILLER_45_63 VPWR VGND sg13g2_decap_8
XFILLER_44_644 VPWR VGND sg13g2_decap_8
XFILLER_44_699 VPWR VGND sg13g2_fill_1
XFILLER_43_154 VPWR VGND sg13g2_decap_8
XFILLER_31_305 VPWR VGND sg13g2_decap_8
XFILLER_12_541 VPWR VGND sg13g2_decap_8
XFILLER_12_585 VPWR VGND sg13g2_fill_1
XFILLER_8_556 VPWR VGND sg13g2_decap_8
X_2121_ VGND VPWR _0979_ _0750_ _0288_ net78 sg13g2_a21oi_1
XFILLER_39_427 VPWR VGND sg13g2_decap_8
XFILLER_19_140 VPWR VGND sg13g2_decap_8
X_2052_ _0715_ net156 _0714_ VPWR VGND sg13g2_nand2_1
X_2337__279 VPWR VGND net278 sg13g2_tiehi
XFILLER_34_154 VPWR VGND sg13g2_decap_8
XFILLER_22_305 VPWR VGND sg13g2_decap_8
XFILLER_31_861 VPWR VGND sg13g2_decap_8
X_1905_ VGND VPWR _0595_ _0596_ _0225_ _0597_ sg13g2_a21oi_1
XFILLER_30_382 VPWR VGND sg13g2_decap_8
X_1836_ state\[84\] daisychain\[84\] net150 _0542_ VPWR VGND sg13g2_mux2_1
X_1767_ _0487_ net174 _0486_ VPWR VGND sg13g2_nand2_1
X_1698_ VGND VPWR net117 daisychain\[55\] _0432_ net58 sg13g2_a21oi_1
X_2319_ net314 VGND VPWR _0135_ daisychain\[7\] clknet_leaf_9_clk sg13g2_dfrbpq_1
XFILLER_39_961 VPWR VGND sg13g2_fill_1
XFILLER_26_655 VPWR VGND sg13g2_fill_1
XFILLER_25_132 VPWR VGND sg13g2_decap_8
XFILLER_15_77 VPWR VGND sg13g2_decap_8
XFILLER_40_168 VPWR VGND sg13g2_decap_8
XFILLER_21_382 VPWR VGND sg13g2_decap_8
XFILLER_31_32 VPWR VGND sg13g2_decap_8
XFILLER_5_526 VPWR VGND sg13g2_decap_8
Xoutput10 net10 uio_out[3] VPWR VGND sg13g2_buf_1
Xoutput21 net21 uo_out[6] VPWR VGND sg13g2_buf_1
Xoutput8 net8 uio_out[1] VPWR VGND sg13g2_buf_1
XFILLER_1_721 VPWR VGND sg13g2_decap_8
XFILLER_0_231 VPWR VGND sg13g2_decap_8
XFILLER_49_725 VPWR VGND sg13g2_decap_8
XFILLER_48_224 VPWR VGND sg13g2_decap_8
XFILLER_17_600 VPWR VGND sg13g2_decap_8
XFILLER_45_931 VPWR VGND sg13g2_decap_8
XFILLER_44_441 VPWR VGND sg13g2_decap_8
XFILLER_29_493 VPWR VGND sg13g2_decap_8
XFILLER_16_143 VPWR VGND sg13g2_decap_8
XFILLER_32_647 VPWR VGND sg13g2_fill_2
XFILLER_31_102 VPWR VGND sg13g2_decap_8
XFILLER_31_179 VPWR VGND sg13g2_decap_8
XFILLER_8_353 VPWR VGND sg13g2_decap_8
X_1621_ state\[41\] daisychain\[41\] net145 _1014_ VPWR VGND sg13g2_mux2_1
X_1552_ _0959_ net161 _0958_ VPWR VGND sg13g2_nand2_1
XFILLER_4_570 VPWR VGND sg13g2_decap_8
X_1483_ VGND VPWR net94 daisychain\[12\] _0904_ net47 sg13g2_a21oi_1
XFILLER_39_224 VPWR VGND sg13g2_decap_8
X_2104_ _0742_ net100 state\[24\] VPWR VGND sg13g2_nand2_1
XFILLER_27_408 VPWR VGND sg13g2_decap_8
XFILLER_48_791 VPWR VGND sg13g2_fill_1
XFILLER_48_780 VPWR VGND sg13g2_decap_8
X_2035_ VGND VPWR _0699_ _0700_ _0251_ _0701_ sg13g2_a21oi_1
XFILLER_35_441 VPWR VGND sg13g2_decap_8
XFILLER_23_614 VPWR VGND sg13g2_fill_2
XFILLER_22_102 VPWR VGND sg13g2_decap_8
X_2389__431 VPWR VGND net430 sg13g2_tiehi
XFILLER_22_179 VPWR VGND sg13g2_decap_8
X_1819_ net199 VPWR _0529_ VGND daisychain\[80\] net43 sg13g2_o21ai_1
XFILLER_45_238 VPWR VGND sg13g2_decap_8
XFILLER_26_32 VPWR VGND sg13g2_decap_8
XFILLER_26_496 VPWR VGND sg13g2_fill_2
XFILLER_41_455 VPWR VGND sg13g2_decap_8
XFILLER_13_168 VPWR VGND sg13g2_decap_8
XFILLER_9_139 VPWR VGND sg13g2_decap_8
XFILLER_42_42 VPWR VGND sg13g2_decap_8
XFILLER_22_680 VPWR VGND sg13g2_fill_1
XFILLER_6_802 VPWR VGND sg13g2_decap_4
XFILLER_6_846 VPWR VGND sg13g2_decap_4
XFILLER_6_824 VPWR VGND sg13g2_decap_4
XFILLER_5_323 VPWR VGND sg13g2_decap_8
XFILLER_1_595 VPWR VGND sg13g2_decap_8
XFILLER_49_522 VPWR VGND sg13g2_decap_8
X_2518__220 VPWR VGND net219 sg13g2_tiehi
XFILLER_49_599 VPWR VGND sg13g2_decap_8
XFILLER_36_238 VPWR VGND sg13g2_decap_8
XFILLER_29_290 VPWR VGND sg13g2_decap_8
XFILLER_45_783 VPWR VGND sg13g2_decap_8
XFILLER_17_485 VPWR VGND sg13g2_decap_8
XFILLER_45_794 VPWR VGND sg13g2_fill_1
XFILLER_32_466 VPWR VGND sg13g2_decap_8
XFILLER_8_150 VPWR VGND sg13g2_decap_8
X_1604_ net189 VPWR _1001_ VGND daisychain\[37\] net33 sg13g2_o21ai_1
X_1535_ VGND VPWR _0943_ _0944_ _0151_ _0945_ sg13g2_a21oi_1
Xfanout129 net130 net129 VPWR VGND sg13g2_buf_1
Xfanout118 net119 net118 VPWR VGND sg13g2_buf_1
Xfanout107 net108 net107 VPWR VGND sg13g2_buf_1
X_1466_ state\[10\] daisychain\[10\] net136 _0890_ VPWR VGND sg13g2_mux2_1
X_1397_ VPWR _0034_ state\[15\] VGND sg13g2_inv_1
XFILLER_27_205 VPWR VGND sg13g2_decap_8
X_2018_ VGND VPWR net92 daisychain\[119\] _0688_ net67 sg13g2_a21oi_1
XFILLER_10_149 VPWR VGND sg13g2_decap_8
XFILLER_3_805 VPWR VGND sg13g2_fill_1
XFILLER_2_337 VPWR VGND sg13g2_decap_8
XFILLER_37_42 VPWR VGND sg13g2_decap_8
XFILLER_46_536 VPWR VGND sg13g2_decap_8
XFILLER_26_271 VPWR VGND sg13g2_decap_8
XFILLER_14_444 VPWR VGND sg13g2_decap_8
XFILLER_42_764 VPWR VGND sg13g2_decap_4
XFILLER_41_252 VPWR VGND sg13g2_decap_8
XFILLER_30_926 VPWR VGND sg13g2_fill_2
XFILLER_10_672 VPWR VGND sg13g2_decap_8
XFILLER_6_643 VPWR VGND sg13g2_decap_8
XFILLER_5_120 VPWR VGND sg13g2_decap_8
XFILLER_5_197 VPWR VGND sg13g2_decap_8
XFILLER_45_7 VPWR VGND sg13g2_decap_8
X_1320_ VPWR _0119_ state\[92\] VGND sg13g2_inv_1
XFILLER_1_392 VPWR VGND sg13g2_decap_8
XFILLER_37_525 VPWR VGND sg13g2_decap_8
XFILLER_49_396 VPWR VGND sg13g2_decap_8
XFILLER_17_282 VPWR VGND sg13g2_decap_8
XFILLER_33_764 VPWR VGND sg13g2_decap_4
XFILLER_32_263 VPWR VGND sg13g2_decap_8
XFILLER_20_403 VPWR VGND sg13g2_decap_8
X_2567_ net455 VGND VPWR _0383_ state\[127\] clknet_leaf_0_clk sg13g2_dfrbpq_1
X_2498_ net353 VGND VPWR _0314_ state\[58\] clknet_leaf_12_clk sg13g2_dfrbpq_1
X_1518_ VGND VPWR net98 daisychain\[19\] _0932_ net48 sg13g2_a21oi_1
X_1449_ net183 VPWR _0877_ VGND daisychain\[6\] net27 sg13g2_o21ai_1
XFILLER_43_539 VPWR VGND sg13g2_decap_8
XFILLER_23_263 VPWR VGND sg13g2_decap_8
XFILLER_23_11 VPWR VGND sg13g2_decap_8
XFILLER_11_425 VPWR VGND sg13g2_decap_8
X_2467__222 VPWR VGND net221 sg13g2_tiehi
XFILLER_8_908 VPWR VGND sg13g2_decap_8
XFILLER_23_88 VPWR VGND sg13g2_decap_8
XFILLER_20_981 VPWR VGND sg13g2_decap_4
XFILLER_3_635 VPWR VGND sg13g2_decap_8
XFILLER_2_134 VPWR VGND sg13g2_decap_8
X_2521__452 VPWR VGND net451 sg13g2_tiehi
XFILLER_48_63 VPWR VGND sg13g2_decap_8
XFILLER_47_801 VPWR VGND sg13g2_fill_2
XFILLER_46_333 VPWR VGND sg13g2_decap_8
XFILLER_15_720 VPWR VGND sg13g2_fill_1
X_2370__213 VPWR VGND net212 sg13g2_tiehi
XFILLER_34_539 VPWR VGND sg13g2_decap_8
XFILLER_14_241 VPWR VGND sg13g2_decap_8
XFILLER_9_13 VPWR VGND sg13g2_decap_4
XFILLER_30_745 VPWR VGND sg13g2_decap_8
X_2446__306 VPWR VGND net305 sg13g2_tiehi
XFILLER_7_974 VPWR VGND sg13g2_fill_1
XFILLER_7_963 VPWR VGND sg13g2_fill_2
XFILLER_6_440 VPWR VGND sg13g2_decap_8
X_2421_ net366 VGND VPWR _0237_ daisychain\[109\] clknet_leaf_3_clk sg13g2_dfrbpq_1
X_2352_ net248 VGND VPWR _0168_ daisychain\[40\] clknet_leaf_13_clk sg13g2_dfrbpq_1
X_2283_ VGND VPWR _0659_ _0831_ _0369_ net76 sg13g2_a21oi_1
X_1303_ VPWR _0010_ state\[109\] VGND sg13g2_inv_1
XFILLER_49_193 VPWR VGND sg13g2_decap_8
XFILLER_38_834 VPWR VGND sg13g2_decap_8
XFILLER_37_322 VPWR VGND sg13g2_decap_8
X_2533__356 VPWR VGND net355 sg13g2_tiehi
XFILLER_37_399 VPWR VGND sg13g2_decap_8
XFILLER_20_200 VPWR VGND sg13g2_decap_8
X_1998_ VGND VPWR net102 daisychain\[115\] _0672_ net54 sg13g2_a21oi_1
XFILLER_20_277 VPWR VGND sg13g2_decap_8
X_2347__259 VPWR VGND net258 sg13g2_tiehi
XFILLER_0_616 VPWR VGND sg13g2_decap_8
XFILLER_48_609 VPWR VGND sg13g2_decap_8
XFILLER_47_119 VPWR VGND sg13g2_decap_8
XFILLER_18_33 VPWR VGND sg13g2_fill_1
XFILLER_28_333 VPWR VGND sg13g2_decap_8
XFILLER_16_528 VPWR VGND sg13g2_decap_4
XFILLER_44_859 VPWR VGND sg13g2_fill_1
XFILLER_43_336 VPWR VGND sg13g2_decap_8
XFILLER_34_21 VPWR VGND sg13g2_decap_8
XFILLER_12_701 VPWR VGND sg13g2_decap_8
XFILLER_24_561 VPWR VGND sg13g2_fill_1
XFILLER_11_222 VPWR VGND sg13g2_decap_8
XFILLER_12_734 VPWR VGND sg13g2_fill_2
XFILLER_34_98 VPWR VGND sg13g2_decap_8
XFILLER_12_778 VPWR VGND sg13g2_decap_4
XFILLER_11_299 VPWR VGND sg13g2_decap_8
XFILLER_7_248 VPWR VGND sg13g2_decap_8
XFILLER_4_944 VPWR VGND sg13g2_decap_8
XFILLER_3_421 VPWR VGND sg13g2_decap_8
XFILLER_1_0 VPWR VGND sg13g2_decap_8
XFILLER_3_498 VPWR VGND sg13g2_decap_8
XFILLER_39_609 VPWR VGND sg13g2_decap_4
XFILLER_38_119 VPWR VGND sg13g2_decap_8
XFILLER_19_322 VPWR VGND sg13g2_decap_8
XFILLER_46_130 VPWR VGND sg13g2_decap_8
XFILLER_19_399 VPWR VGND sg13g2_decap_8
XFILLER_47_686 VPWR VGND sg13g2_decap_8
XFILLER_34_336 VPWR VGND sg13g2_decap_8
X_1921_ state\[101\] daisychain\[101\] net140 _0610_ VPWR VGND sg13g2_mux2_1
X_1852_ _0555_ net171 _0554_ VPWR VGND sg13g2_nand2_1
X_1783_ VGND VPWR net129 daisychain\[72\] _0500_ net64 sg13g2_a21oi_1
X_2404_ net400 VGND VPWR _0220_ daisychain\[92\] clknet_leaf_4_clk sg13g2_dfrbpq_1
XFILLER_34_0 VPWR VGND sg13g2_decap_8
X_2335_ net282 VGND VPWR _0151_ daisychain\[23\] clknet_leaf_14_clk sg13g2_dfrbpq_1
XFILLER_29_108 VPWR VGND sg13g2_decap_8
X_2266_ _0823_ net104 state\[105\] VPWR VGND sg13g2_nand2_1
X_2197_ VGND VPWR _0487_ _0788_ _0326_ net86 sg13g2_a21oi_1
XFILLER_1_91 VPWR VGND sg13g2_decap_8
XFILLER_25_314 VPWR VGND sg13g2_decap_8
XFILLER_37_196 VPWR VGND sg13g2_decap_8
XFILLER_21_531 VPWR VGND sg13g2_fill_1
XFILLER_21_542 VPWR VGND sg13g2_fill_1
XFILLER_21_586 VPWR VGND sg13g2_fill_2
XFILLER_5_719 VPWR VGND sg13g2_decap_4
XFILLER_4_229 VPWR VGND sg13g2_decap_8
XFILLER_20_34 VPWR VGND sg13g2_fill_1
XFILLER_20_67 VPWR VGND sg13g2_decap_8
XFILLER_0_413 VPWR VGND sg13g2_decap_8
X_2399__411 VPWR VGND net410 sg13g2_tiehi
XFILLER_49_929 VPWR VGND sg13g2_decap_4
XFILLER_48_406 VPWR VGND sg13g2_decap_8
XFILLER_29_87 VPWR VGND sg13g2_decap_8
XFILLER_29_620 VPWR VGND sg13g2_decap_4
XFILLER_28_130 VPWR VGND sg13g2_decap_8
XFILLER_17_848 VPWR VGND sg13g2_fill_1
XFILLER_44_623 VPWR VGND sg13g2_decap_8
XFILLER_16_325 VPWR VGND sg13g2_decap_8
XFILLER_45_42 VPWR VGND sg13g2_decap_8
XFILLER_43_133 VPWR VGND sg13g2_decap_8
XFILLER_12_520 VPWR VGND sg13g2_decap_8
XFILLER_8_535 VPWR VGND sg13g2_decap_8
XFILLER_6_69 VPWR VGND sg13g2_decap_8
XFILLER_3_295 VPWR VGND sg13g2_decap_8