* NGSPICE file created from heichips25_pudding.ext - technology: ihp-sg13g2

* Black-box entry subcircuit for sg13g2_decap_8 abstract view
.subckt sg13g2_decap_8 VDD VSS
.ends

* Black-box entry subcircuit for sg13g2_fill_2 abstract view
.subckt sg13g2_fill_2 VDD VSS
.ends

* Black-box entry subcircuit for sg13g2_nand2_1 abstract view
.subckt sg13g2_nand2_1 Y A B VDD VSS
.ends

* Black-box entry subcircuit for sg13g2_tiehi abstract view
.subckt sg13g2_tiehi VDD VSS L_HI
.ends

* Black-box entry subcircuit for sg13g2_fill_1 abstract view
.subckt sg13g2_fill_1 VDD VSS
.ends

* Black-box entry subcircuit for sg13g2_decap_4 abstract view
.subckt sg13g2_decap_4 VDD VSS
.ends

* Black-box entry subcircuit for sg13g2_mux2_1 abstract view
.subckt sg13g2_mux2_1 A0 A1 S X VDD VSS
.ends

* Black-box entry subcircuit for sg13g2_buf_1 abstract view
.subckt sg13g2_buf_1 A X VDD VSS
.ends

* Black-box entry subcircuit for sg13g2_a21oi_1 abstract view
.subckt sg13g2_a21oi_1 VSS VDD A1 A2 Y B1
.ends

* Black-box entry subcircuit for sg13g2_inv_1 abstract view
.subckt sg13g2_inv_1 VDD Y A VSS
.ends

* Black-box entry subcircuit for sg13g2_dfrbpq_1 abstract view
.subckt sg13g2_dfrbpq_1 RESET_B VSS VDD D Q CLK
.ends

* Black-box entry subcircuit for sg13g2_o21ai_1 abstract view
.subckt sg13g2_o21ai_1 B1 VDD Y VSS A1 A2
.ends

* Black-box entry subcircuit for sg13g2_buf_8 abstract view
.subckt sg13g2_buf_8 A X VDD VSS
.ends

* Black-box entry subcircuit for sg13g2_buf_16 abstract view
.subckt sg13g2_buf_16 X A VDD VSS
.ends

* Black-box entry subcircuit for sg13g2_inv_4 abstract view
.subckt sg13g2_inv_4 A Y VDD VSS
.ends

* Black-box entry subcircuit for sg13g2_inv_2 abstract view
.subckt sg13g2_inv_2 Y A VDD VSS
.ends

* Black-box entry subcircuit for sg13g2_inv_8 abstract view
.subckt sg13g2_inv_8 Y A VDD VSS
.ends

* Black-box entry subcircuit for sg13g2_inv_16 abstract view
.subckt sg13g2_inv_16 A Y VDD VSS
.ends

* Black-box entry subcircuit for dac128module abstract view
.subckt dac128module ON[64] ONB[64] ON[65] ONB[65] ON[66] ONB[66] ON[67] ONB[67] ON[68]
+ ONB[68] ON[69] ONB[69] ON[70] ONB[70] ON[71] ONB[71] ON[72] ONB[72] EN[2] ENB[2]
+ ON[73] ONB[73] ON[74] ONB[74] ON[75] ONB[75] ON[76] ONB[76] ON[77] ONB[77] ON[78]
+ ONB[78] ON[79] ONB[79] ON[80] ONB[80] ON[81] ONB[81] ON[82] ONB[82] ON[83] ONB[83]
+ ON[84] ONB[84] ON[85] ONB[85] ON[86] ONB[86] ON[87] ONB[87] ON[88] ONB[88] ON[89]
+ ONB[89] ON[90] ONB[90] ON[91] ONB[91] ON[92] ONB[92] ON[93] ONB[93] ON[94] ONB[94]
+ ON[95] ONB[95] ON[96] ONB[96] ON[97] ONB[97] ON[98] ONB[98] ON[99] ONB[99] ON[100]
+ ONB[100] ON[101] ONB[101] ON[102] ONB[102] ON[103] ONB[103] ON[104] ONB[104] ON[105]
+ ONB[105] ON[106] ONB[106] ON[107] ONB[107] ON[108] ONB[108] ON[109] ONB[109] ON[110]
+ ONB[110] ON[111] ONB[111] ON[112] ONB[112] ON[113] ONB[113] ON[114] ONB[114] ON[115]
+ ONB[115] ON[116] ONB[116] ON[117] ONB[117] ON[118] ONB[118] ON[119] ONB[119] ON[120]
+ ONB[120] ON[121] ONB[121] ON[122] ONB[122] EN[3] ENB[3] ON[123] ONB[123] ON[124]
+ ONB[124] ON[125] ONB[125] ON[126] ONB[126] ON[127] ONB[127] ON[0] ONB[0] ON[1] ONB[1]
+ ON[2] ONB[2] ON[3] ONB[3] ON[4] ONB[4] ON[5] ONB[5] ON[6] EN[0] ENB[0] ONB[6] ON[7]
+ ONB[7] ON[8] ONB[8] ON[9] ONB[9] ON[10] ONB[10] ON[11] ONB[11] ON[12] ONB[12] ON[13]
+ ONB[13] ON[14] ONB[14] ON[15] ONB[15] ON[16] ONB[16] ON[17] ONB[17] ON[18] ONB[18]
+ ON[19] ONB[19] ON[20] ONB[20] ON[21] ONB[21] ON[22] ONB[22] ON[23] ONB[23] ON[24]
+ ONB[24] ON[25] ONB[25] ON[26] ONB[26] ON[27] ONB[27] ON[28] ONB[28] ON[29] ONB[29]
+ ON[30] ONB[30] ON[31] ONB[31] ON[33] ONB[33] ON[32] ONB[32] ON[34] ONB[34] ON[35]
+ ONB[35] ON[36] ONB[36] ON[37] ONB[37] ON[38] ONB[38] ON[39] ONB[39] ON[40] ONB[40]
+ ON[41] ONB[41] ON[42] ONB[42] ON[43] ONB[43] ON[44] ONB[44] ON[45] ONB[45] ON[46]
+ ONB[46] ON[47] ONB[47] ON[48] ONB[48] ON[49] ONB[49] ON[50] ONB[50] ON[51] ONB[51]
+ ON[52] ONB[52] ON[53] ONB[53] ON[54] ONB[54] ON[55] ONB[55] ON[56] ONB[56] ON[57]
+ ONB[57] ON[58] ONB[58] ON[59] ONB[59] ON[60] ONB[60] ON[61] ONB[61] ON[62] ONB[62]
+ ON[63] ONB[63] EN[1] ENB[1] VSS VDD
.ends

* Black-box entry subcircuit for sg13g2_or2_1 abstract view
.subckt sg13g2_or2_1 VSS VDD X B A
.ends

* Black-box entry subcircuit for sg13g2_nor2_1 abstract view
.subckt sg13g2_nor2_1 A B Y VDD VSS
.ends

.subckt heichips25_pudding VGND VPWR clk ena rst_n ui_in[0] ui_in[1] ui_in[2] ui_in[3]
+ ui_in[4] ui_in[5] ui_in[6] ui_in[7] uio_in[0] uio_in[1] uio_in[2] uio_in[3] uio_in[4]
+ uio_in[5] uio_in[6] uio_in[7] uio_oe[0] uio_oe[1] uio_oe[2] uio_oe[3] uio_oe[4]
+ uio_oe[5] uio_oe[6] uio_oe[7] uio_out[0] uio_out[1] uio_out[2] uio_out[3] uio_out[4]
+ uio_out[5] uio_out[6] uio_out[7] uo_out[0] uo_out[1] uo_out[2] uo_out[3] uo_out[4]
+ uo_out[5] uo_out[6] uo_out[7]
XFILLER_28_907 VPWR VGND sg13g2_decap_8
XFILLER_39_266 VPWR VGND sg13g2_decap_8
XFILLER_28_918 VPWR VGND sg13g2_fill_2
XFILLER_27_406 VPWR VGND sg13g2_decap_8
X_2106_ _0743_ net101 state\[25\] VPWR VGND sg13g2_nand2_1
X_2037_ _0703_ net158 _0702_ VPWR VGND sg13g2_nand2_1
XFILLER_35_483 VPWR VGND sg13g2_decap_8
XFILLER_22_155 VPWR VGND sg13g2_decap_8
XFILLER_10_339 VPWR VGND sg13g2_fill_2
X_2461__247 VPWR VGND net246 sg13g2_tiehi
X_2322__310 VPWR VGND net309 sg13g2_tiehi
XFILLER_2_549 VPWR VGND sg13g2_fill_2
XFILLER_45_203 VPWR VGND sg13g2_decap_8
XFILLER_13_100 VPWR VGND sg13g2_decap_8
XFILLER_26_74 VPWR VGND sg13g2_decap_8
XFILLER_13_111 VPWR VGND sg13g2_fill_2
XFILLER_41_420 VPWR VGND sg13g2_decap_8
XFILLER_26_494 VPWR VGND sg13g2_decap_8
XFILLER_42_998 VPWR VGND sg13g2_fill_2
XFILLER_9_126 VPWR VGND sg13g2_decap_8
XFILLER_41_497 VPWR VGND sg13g2_decap_8
XFILLER_42_84 VPWR VGND sg13g2_decap_8
XFILLER_3_89 VPWR VGND sg13g2_decap_8
XFILLER_49_564 VPWR VGND sg13g2_decap_8
XFILLER_36_203 VPWR VGND sg13g2_decap_8
XFILLER_18_973 VPWR VGND sg13g2_fill_1
XFILLER_45_770 VPWR VGND sg13g2_decap_8
XFILLER_44_280 VPWR VGND sg13g2_decap_8
XFILLER_33_965 VPWR VGND sg13g2_decap_4
XFILLER_32_431 VPWR VGND sg13g2_decap_8
XFILLER_20_637 VPWR VGND sg13g2_decap_4
XFILLER_8_170 VPWR VGND sg13g2_decap_8
X_1606_ state\[38\] daisychain\[38\] net143 _1002_ VPWR VGND sg13g2_mux2_1
Xfanout138 net5 net138 VPWR VGND sg13g2_buf_1
Xfanout127 net133 net127 VPWR VGND sg13g2_buf_1
Xfanout116 net118 net116 VPWR VGND sg13g2_buf_1
Xfanout105 net112 net105 VPWR VGND sg13g2_buf_1
X_1537_ _0947_ net164 _0946_ VPWR VGND sg13g2_nand2_1
Xfanout149 net156 net149 VPWR VGND sg13g2_buf_1
X_1468_ VGND VPWR net92 daisychain\[9\] _0892_ net46 sg13g2_a21oi_1
X_1399_ VPWR _0032_ state\[13\] VGND sg13g2_inv_1
XFILLER_27_203 VPWR VGND sg13g2_decap_8
XFILLER_43_707 VPWR VGND sg13g2_decap_8
XFILLER_42_217 VPWR VGND sg13g2_decap_8
XFILLER_24_910 VPWR VGND sg13g2_fill_2
XFILLER_35_280 VPWR VGND sg13g2_decap_8
XFILLER_24_965 VPWR VGND sg13g2_decap_8
XFILLER_24_943 VPWR VGND sg13g2_fill_1
XFILLER_23_486 VPWR VGND sg13g2_decap_8
XFILLER_10_136 VPWR VGND sg13g2_decap_8
XFILLER_12_21 VPWR VGND sg13g2_decap_8
XFILLER_6_118 VPWR VGND sg13g2_decap_8
XFILLER_12_98 VPWR VGND sg13g2_decap_8
XFILLER_2_302 VPWR VGND sg13g2_decap_8
XFILLER_5_4 VPWR VGND sg13g2_decap_4
XFILLER_2_379 VPWR VGND sg13g2_decap_8
XFILLER_18_214 VPWR VGND sg13g2_decap_8
XFILLER_46_567 VPWR VGND sg13g2_decap_8
XFILLER_37_84 VPWR VGND sg13g2_decap_8
XFILLER_33_228 VPWR VGND sg13g2_decap_8
XFILLER_26_291 VPWR VGND sg13g2_decap_8
XFILLER_14_486 VPWR VGND sg13g2_fill_2
XFILLER_42_784 VPWR VGND sg13g2_decap_8
XFILLER_41_294 VPWR VGND sg13g2_decap_8
X_2440_ net329 VGND VPWR _0256_ state\[0\] clknet_leaf_15_clk sg13g2_dfrbpq_1
XFILLER_6_696 VPWR VGND sg13g2_decap_8
XFILLER_5_173 VPWR VGND sg13g2_decap_8
X_2371_ net211 VGND VPWR _0187_ daisychain\[59\] clknet_leaf_9_clk sg13g2_dfrbpq_1
X_1322_ VPWR _0117_ state\[90\] VGND sg13g2_inv_1
XFILLER_49_361 VPWR VGND sg13g2_decap_8
XFILLER_37_567 VPWR VGND sg13g2_decap_8
XFILLER_25_729 VPWR VGND sg13g2_fill_2
XFILLER_24_228 VPWR VGND sg13g2_decap_8
XFILLER_21_935 VPWR VGND sg13g2_fill_2
XFILLER_20_445 VPWR VGND sg13g2_decap_8
XFILLER_28_501 VPWR VGND sg13g2_decap_8
XFILLER_43_504 VPWR VGND sg13g2_decap_8
XFILLER_28_589 VPWR VGND sg13g2_decap_8
XFILLER_11_423 VPWR VGND sg13g2_decap_8
XFILLER_23_283 VPWR VGND sg13g2_decap_8
XFILLER_8_906 VPWR VGND sg13g2_fill_1
XFILLER_11_467 VPWR VGND sg13g2_fill_2
XFILLER_48_1008 VPWR VGND sg13g2_decap_8
XFILLER_2_176 VPWR VGND sg13g2_decap_8
XFILLER_19_512 VPWR VGND sg13g2_fill_2
XFILLER_0_35 VPWR VGND sg13g2_decap_8
XFILLER_47_854 VPWR VGND sg13g2_decap_8
X_2554__281 VPWR VGND net280 sg13g2_tiehi
XFILLER_46_364 VPWR VGND sg13g2_decap_8
XFILLER_34_504 VPWR VGND sg13g2_decap_8
X_1940_ VGND VPWR _0623_ _0624_ _0232_ _0625_ sg13g2_a21oi_1
XFILLER_42_581 VPWR VGND sg13g2_decap_8
X_1871_ state\[91\] daisychain\[91\] net151 _0570_ VPWR VGND sg13g2_mux2_1
XFILLER_9_77 VPWR VGND sg13g2_decap_8
XFILLER_7_972 VPWR VGND sg13g2_decap_8
XFILLER_6_471 VPWR VGND sg13g2_fill_1
X_2423_ net363 VGND VPWR _0239_ daisychain\[111\] clknet_leaf_7_clk sg13g2_dfrbpq_1
X_2354_ net245 VGND VPWR _0170_ daisychain\[42\] clknet_leaf_7_clk sg13g2_dfrbpq_1
X_1305_ VPWR _0008_ state\[107\] VGND sg13g2_inv_1
X_2285_ VGND VPWR _0663_ _0832_ _0370_ net72 sg13g2_a21oi_1
XFILLER_38_843 VPWR VGND sg13g2_decap_4
X_2492__379 VPWR VGND net378 sg13g2_tiehi
XFILLER_37_364 VPWR VGND sg13g2_decap_8
XFILLER_25_515 VPWR VGND sg13g2_decap_8
XFILLER_25_559 VPWR VGND sg13g2_fill_2
XFILLER_40_518 VPWR VGND sg13g2_decap_8
XFILLER_20_242 VPWR VGND sg13g2_decap_8
XFILLER_33_592 VPWR VGND sg13g2_decap_8
XFILLER_5_909 VPWR VGND sg13g2_fill_1
XFILLER_4_408 VPWR VGND sg13g2_decap_8
XFILLER_18_53 VPWR VGND sg13g2_decap_8
XFILLER_43_301 VPWR VGND sg13g2_decap_8
XFILLER_28_375 VPWR VGND sg13g2_decap_8
XFILLER_44_868 VPWR VGND sg13g2_decap_8
XFILLER_43_378 VPWR VGND sg13g2_decap_8
XFILLER_34_63 VPWR VGND sg13g2_decap_8
XFILLER_31_529 VPWR VGND sg13g2_decap_8
XFILLER_12_732 VPWR VGND sg13g2_decap_8
XFILLER_7_202 VPWR VGND sg13g2_decap_8
XFILLER_11_286 VPWR VGND sg13g2_decap_8
X_2330__294 VPWR VGND net293 sg13g2_tiehi
XFILLER_7_279 VPWR VGND sg13g2_decap_8
X_2406__398 VPWR VGND net397 sg13g2_tiehi
X_2070_ _0725_ net92 state\[7\] VPWR VGND sg13g2_nand2_1
XFILLER_19_375 VPWR VGND sg13g2_decap_8
XFILLER_47_651 VPWR VGND sg13g2_decap_8
XFILLER_35_813 VPWR VGND sg13g2_decap_4
XFILLER_46_161 VPWR VGND sg13g2_decap_8
XFILLER_35_857 VPWR VGND sg13g2_decap_8
XFILLER_34_301 VPWR VGND sg13g2_decap_8
XFILLER_22_507 VPWR VGND sg13g2_fill_1
XFILLER_35_868 VPWR VGND sg13g2_fill_2
XFILLER_34_378 VPWR VGND sg13g2_decap_8
X_1923_ VGND VPWR net110 daisychain\[100\] _0612_ net55 sg13g2_a21oi_1
X_1854_ net195 VPWR _0557_ VGND daisychain\[87\] net36 sg13g2_o21ai_1
X_1785_ VGND VPWR _0499_ _0500_ _0201_ _0501_ sg13g2_a21oi_1
X_2406_ net397 VGND VPWR _0222_ daisychain\[94\] clknet_leaf_5_clk sg13g2_dfrbpq_1
X_2337_ net279 VGND VPWR _0153_ daisychain\[25\] clknet_leaf_14_clk sg13g2_dfrbpq_1
X_2268_ _0824_ net108 state\[106\] VPWR VGND sg13g2_nand2_1
X_2457__263 VPWR VGND net262 sg13g2_tiehi
XFILLER_38_651 VPWR VGND sg13g2_decap_8
XFILLER_26_813 VPWR VGND sg13g2_decap_8
X_2199_ VGND VPWR _0491_ _0789_ _0327_ net85 sg13g2_a21oi_1
XFILLER_37_161 VPWR VGND sg13g2_decap_8
XFILLER_26_835 VPWR VGND sg13g2_fill_1
XFILLER_25_312 VPWR VGND sg13g2_decap_8
XFILLER_41_805 VPWR VGND sg13g2_decap_8
XFILLER_26_879 VPWR VGND sg13g2_fill_1
XFILLER_40_315 VPWR VGND sg13g2_decap_8
XFILLER_25_389 VPWR VGND sg13g2_decap_8
XFILLER_21_540 VPWR VGND sg13g2_fill_1
XFILLER_21_573 VPWR VGND sg13g2_fill_2
XFILLER_20_32 VPWR VGND sg13g2_decap_8
XFILLER_0_455 VPWR VGND sg13g2_decap_8
XFILLER_49_949 VPWR VGND sg13g2_decap_8
XFILLER_29_52 VPWR VGND sg13g2_decap_8
XFILLER_0_499 VPWR VGND sg13g2_decap_4
XFILLER_48_448 VPWR VGND sg13g2_decap_8
XFILLER_29_640 VPWR VGND sg13g2_decap_8
XFILLER_16_323 VPWR VGND sg13g2_decap_8
XFILLER_28_172 VPWR VGND sg13g2_decap_8
XFILLER_44_665 VPWR VGND sg13g2_decap_8
XFILLER_32_805 VPWR VGND sg13g2_decap_8
XFILLER_45_84 VPWR VGND sg13g2_decap_8
XFILLER_43_175 VPWR VGND sg13g2_decap_8
XFILLER_32_827 VPWR VGND sg13g2_decap_4
XFILLER_31_326 VPWR VGND sg13g2_decap_8
XFILLER_8_544 VPWR VGND sg13g2_fill_2
XFILLER_6_23 VPWR VGND sg13g2_fill_2
X_1570_ VGND VPWR _0971_ _0972_ _0158_ _0973_ sg13g2_a21oi_1
XFILLER_8_599 VPWR VGND sg13g2_decap_4
XFILLER_4_772 VPWR VGND sg13g2_fill_1
XFILLER_3_271 VPWR VGND sg13g2_decap_8
XFILLER_20_4 VPWR VGND sg13g2_decap_8
X_2122_ _0751_ net103 state\[33\] VPWR VGND sg13g2_nand2_1
XFILLER_39_448 VPWR VGND sg13g2_decap_8
XFILLER_26_109 VPWR VGND sg13g2_decap_8
XFILLER_19_172 VPWR VGND sg13g2_decap_8
X_2053_ VGND VPWR net91 daisychain\[126\] _0716_ net48 sg13g2_a21oi_1
XFILLER_35_665 VPWR VGND sg13g2_decap_8
XFILLER_34_175 VPWR VGND sg13g2_decap_8
XFILLER_23_827 VPWR VGND sg13g2_decap_8
XFILLER_22_337 VPWR VGND sg13g2_decap_8
X_1906_ state\[98\] daisychain\[98\] net151 _0598_ VPWR VGND sg13g2_mux2_1
X_1837_ _0543_ net176 _0542_ VPWR VGND sg13g2_nand2_1
X_1768_ VGND VPWR net131 daisychain\[69\] _0488_ net63 sg13g2_a21oi_1
X_1699_ net193 VPWR _0433_ VGND daisychain\[56\] net34 sg13g2_o21ai_1
XFILLER_26_654 VPWR VGND sg13g2_decap_8
XFILLER_41_602 VPWR VGND sg13g2_decap_8
XFILLER_26_698 VPWR VGND sg13g2_decap_8
XFILLER_13_326 VPWR VGND sg13g2_decap_8
XFILLER_40_112 VPWR VGND sg13g2_decap_8
XFILLER_25_186 VPWR VGND sg13g2_decap_8
XFILLER_9_308 VPWR VGND sg13g2_decap_8
XFILLER_41_679 VPWR VGND sg13g2_decap_8
XFILLER_40_189 VPWR VGND sg13g2_decap_8
XFILLER_31_53 VPWR VGND sg13g2_decap_8
Xoutput20 net20 uo_out[5] VPWR VGND sg13g2_buf_1
Xoutput7 net7 uio_out[0] VPWR VGND sg13g2_buf_1
XFILLER_0_252 VPWR VGND sg13g2_decap_8
XFILLER_49_746 VPWR VGND sg13g2_decap_8
X_2553__313 VPWR VGND net312 sg13g2_tiehi
XFILLER_48_245 VPWR VGND sg13g2_decap_8
XFILLER_16_120 VPWR VGND sg13g2_decap_8
XFILLER_44_462 VPWR VGND sg13g2_decap_8
XFILLER_32_613 VPWR VGND sg13g2_decap_8
XFILLER_16_197 VPWR VGND sg13g2_decap_8
XFILLER_31_123 VPWR VGND sg13g2_decap_8
XFILLER_12_392 VPWR VGND sg13g2_fill_2
XFILLER_8_352 VPWR VGND sg13g2_fill_2
X_1622_ _1015_ net166 _1014_ VPWR VGND sg13g2_nand2_1
X_1553_ VGND VPWR net101 daisychain\[26\] _0960_ net50 sg13g2_a21oi_1
X_1484_ net183 VPWR _0905_ VGND daisychain\[13\] net24 sg13g2_o21ai_1
XFILLER_11_0 VPWR VGND sg13g2_fill_1
XFILLER_39_245 VPWR VGND sg13g2_decap_8
X_2105_ VGND VPWR _0947_ _0742_ _0280_ net72 sg13g2_a21oi_1
X_2036_ state\[124\] daisychain\[124\] net139 _0702_ VPWR VGND sg13g2_mux2_1
XFILLER_35_462 VPWR VGND sg13g2_decap_8
XFILLER_22_134 VPWR VGND sg13g2_decap_8
XFILLER_10_318 VPWR VGND sg13g2_decap_8
XFILLER_2_528 VPWR VGND sg13g2_fill_2
XFILLER_2_517 VPWR VGND sg13g2_decap_8
XFILLER_18_407 VPWR VGND sg13g2_fill_1
XFILLER_46_749 VPWR VGND sg13g2_decap_8
XFILLER_45_259 VPWR VGND sg13g2_decap_8
XFILLER_14_602 VPWR VGND sg13g2_decap_8
XFILLER_26_53 VPWR VGND sg13g2_decap_8
XFILLER_26_473 VPWR VGND sg13g2_decap_8
XFILLER_9_105 VPWR VGND sg13g2_decap_8
XFILLER_41_476 VPWR VGND sg13g2_decap_8
XFILLER_42_63 VPWR VGND sg13g2_decap_8
XFILLER_6_856 VPWR VGND sg13g2_fill_2
XFILLER_5_355 VPWR VGND sg13g2_decap_8
XFILLER_5_366 VPWR VGND sg13g2_fill_1
XFILLER_5_399 VPWR VGND sg13g2_decap_8
XFILLER_3_68 VPWR VGND sg13g2_decap_8
XFILLER_49_543 VPWR VGND sg13g2_decap_8
XFILLER_36_259 VPWR VGND sg13g2_decap_8
XFILLER_32_410 VPWR VGND sg13g2_decap_8
XFILLER_32_487 VPWR VGND sg13g2_decap_8
X_2488__395 VPWR VGND net394 sg13g2_tiehi
X_1605_ VGND VPWR _0999_ _1000_ _0165_ _1001_ sg13g2_a21oi_1
X_1536_ state\[24\] daisychain\[24\] net141 _0946_ VPWR VGND sg13g2_mux2_1
Xfanout128 net132 net128 VPWR VGND sg13g2_buf_1
Xfanout117 net118 net117 VPWR VGND sg13g2_buf_1
Xfanout106 net107 net106 VPWR VGND sg13g2_buf_1
Xfanout139 net5 net139 VPWR VGND sg13g2_buf_1
X_1467_ _0891_ net159 _0890_ VPWR VGND sg13g2_nand2_1
X_1398_ VPWR _0033_ state\[14\] VGND sg13g2_inv_1
XFILLER_28_749 VPWR VGND sg13g2_decap_8
XFILLER_28_738 VPWR VGND sg13g2_fill_2
XFILLER_27_259 VPWR VGND sg13g2_decap_8
XFILLER_36_771 VPWR VGND sg13g2_fill_1
X_2019_ net181 VPWR _0689_ VGND daisychain\[120\] net25 sg13g2_o21ai_1
XFILLER_23_465 VPWR VGND sg13g2_decap_8
XFILLER_10_115 VPWR VGND sg13g2_decap_8
XFILLER_12_77 VPWR VGND sg13g2_decap_8
XFILLER_2_358 VPWR VGND sg13g2_decap_8
XFILLER_19_716 VPWR VGND sg13g2_fill_1
XFILLER_46_546 VPWR VGND sg13g2_decap_8
XFILLER_37_63 VPWR VGND sg13g2_decap_8
XFILLER_33_207 VPWR VGND sg13g2_decap_8
XFILLER_26_270 VPWR VGND sg13g2_decap_8
XFILLER_42_763 VPWR VGND sg13g2_decap_8
XFILLER_41_273 VPWR VGND sg13g2_decap_8
XFILLER_30_947 VPWR VGND sg13g2_fill_1
XFILLER_6_642 VPWR VGND sg13g2_fill_2
XFILLER_5_152 VPWR VGND sg13g2_decap_8
X_2370_ net213 VGND VPWR _0186_ daisychain\[58\] clknet_leaf_9_clk sg13g2_dfrbpq_1
X_1321_ VPWR _0118_ state\[91\] VGND sg13g2_inv_1
X_2340__274 VPWR VGND net273 sg13g2_tiehi
XFILLER_49_340 VPWR VGND sg13g2_decap_8
X_2555__249 VPWR VGND net248 sg13g2_tiehi
XFILLER_37_546 VPWR VGND sg13g2_decap_8
XFILLER_18_771 VPWR VGND sg13g2_fill_1
XFILLER_24_207 VPWR VGND sg13g2_decap_8
XFILLER_17_281 VPWR VGND sg13g2_decap_8
X_2416__378 VPWR VGND net377 sg13g2_tiehi
XFILLER_20_424 VPWR VGND sg13g2_decap_8
XFILLER_32_284 VPWR VGND sg13g2_decap_8
XFILLER_9_491 VPWR VGND sg13g2_fill_1
XFILLER_0_829 VPWR VGND sg13g2_decap_8
X_2499_ net350 VGND VPWR _0315_ state\[59\] clknet_leaf_9_clk sg13g2_dfrbpq_1
X_1519_ net185 VPWR _0933_ VGND daisychain\[20\] net26 sg13g2_o21ai_1
XFILLER_28_557 VPWR VGND sg13g2_fill_2
XFILLER_23_262 VPWR VGND sg13g2_decap_8
XFILLER_8_918 VPWR VGND sg13g2_fill_2
XFILLER_23_32 VPWR VGND sg13g2_decap_8
XFILLER_23_87 VPWR VGND sg13g2_decap_8
XFILLER_2_155 VPWR VGND sg13g2_decap_8
XFILLER_48_84 VPWR VGND sg13g2_decap_8
XFILLER_47_833 VPWR VGND sg13g2_decap_8
XFILLER_0_14 VPWR VGND sg13g2_decap_8
XFILLER_46_343 VPWR VGND sg13g2_decap_8
XFILLER_9_34 VPWR VGND sg13g2_decap_8
XFILLER_42_560 VPWR VGND sg13g2_decap_8
XFILLER_14_295 VPWR VGND sg13g2_decap_8
X_1870_ VGND VPWR _0567_ _0568_ _0218_ _0569_ sg13g2_a21oi_1
X_2450__291 VPWR VGND net290 sg13g2_tiehi
XFILLER_9_56 VPWR VGND sg13g2_decap_8
XFILLER_31_1013 VPWR VGND sg13g2_decap_8
X_2422_ net365 VGND VPWR _0238_ daisychain\[110\] clknet_leaf_7_clk sg13g2_dfrbpq_1
X_2561__297 VPWR VGND net296 sg13g2_tiehi
X_2353_ net247 VGND VPWR _0169_ daisychain\[41\] clknet_leaf_8_clk sg13g2_dfrbpq_1
X_1304_ VPWR _0009_ state\[108\] VGND sg13g2_inv_1
X_2284_ _0832_ net101 state\[114\] VPWR VGND sg13g2_nand2_1
XFILLER_38_833 VPWR VGND sg13g2_decap_4
XFILLER_37_343 VPWR VGND sg13g2_decap_8
XFILLER_21_700 VPWR VGND sg13g2_decap_8
XFILLER_33_571 VPWR VGND sg13g2_decap_8
XFILLER_20_221 VPWR VGND sg13g2_decap_8
XFILLER_21_766 VPWR VGND sg13g2_fill_2
XFILLER_20_298 VPWR VGND sg13g2_decap_8
X_1999_ net189 VPWR _0673_ VGND daisychain\[116\] net30 sg13g2_o21ai_1
XFILLER_0_626 VPWR VGND sg13g2_decap_8
XFILLER_18_32 VPWR VGND sg13g2_decap_8
XFILLER_29_855 VPWR VGND sg13g2_decap_8
X_2319__316 VPWR VGND net315 sg13g2_tiehi
XFILLER_28_354 VPWR VGND sg13g2_decap_8
XFILLER_16_549 VPWR VGND sg13g2_decap_8
XFILLER_44_847 VPWR VGND sg13g2_decap_8
XFILLER_43_357 VPWR VGND sg13g2_decap_8
XFILLER_31_508 VPWR VGND sg13g2_decap_8
XFILLER_34_42 VPWR VGND sg13g2_decap_8
XFILLER_11_265 VPWR VGND sg13g2_decap_8
XFILLER_8_759 VPWR VGND sg13g2_fill_1
XFILLER_7_258 VPWR VGND sg13g2_decap_8
XFILLER_3_442 VPWR VGND sg13g2_decap_8
XFILLER_47_630 VPWR VGND sg13g2_decap_8
XFILLER_19_354 VPWR VGND sg13g2_decap_8
XFILLER_46_140 VPWR VGND sg13g2_decap_8
XFILLER_35_825 VPWR VGND sg13g2_fill_1
XFILLER_34_357 VPWR VGND sg13g2_decap_8
XFILLER_43_880 VPWR VGND sg13g2_decap_8
X_1922_ _0611_ net168 _0610_ VPWR VGND sg13g2_nand2_1
X_1853_ VGND VPWR net123 daisychain\[86\] _0556_ net59 sg13g2_a21oi_1
XFILLER_30_585 VPWR VGND sg13g2_decap_8
X_1784_ net199 VPWR _0501_ VGND daisychain\[73\] net40 sg13g2_o21ai_1
X_2405_ net399 VGND VPWR _0221_ daisychain\[93\] clknet_leaf_5_clk sg13g2_dfrbpq_1
XFILLER_41_0 VPWR VGND sg13g2_decap_8
X_2336_ net281 VGND VPWR _0152_ daisychain\[24\] clknet_leaf_13_clk sg13g2_dfrbpq_1
X_2267_ VGND VPWR _0627_ _0823_ _0361_ net77 sg13g2_a21oi_1
XFILLER_38_630 VPWR VGND sg13g2_decap_8
XFILLER_29_129 VPWR VGND sg13g2_decap_8
XFILLER_37_140 VPWR VGND sg13g2_decap_8
X_2198_ _0789_ net129 state\[71\] VPWR VGND sg13g2_nand2_1
XFILLER_38_1019 VPWR VGND sg13g2_decap_8
XFILLER_25_368 VPWR VGND sg13g2_decap_8
XFILLER_21_552 VPWR VGND sg13g2_fill_1
X_2464__235 VPWR VGND net234 sg13g2_tiehi
XFILLER_5_707 VPWR VGND sg13g2_fill_1
XFILLER_20_11 VPWR VGND sg13g2_decap_8
XFILLER_4_239 VPWR VGND sg13g2_decap_8
XFILLER_20_88 VPWR VGND sg13g2_decap_8
XFILLER_0_434 VPWR VGND sg13g2_decap_8
XFILLER_0_467 VPWR VGND sg13g2_decap_8
XFILLER_49_928 VPWR VGND sg13g2_decap_8
XFILLER_48_427 VPWR VGND sg13g2_decap_8
XFILLER_29_31 VPWR VGND sg13g2_decap_8
XFILLER_16_302 VPWR VGND sg13g2_decap_8
XFILLER_29_696 VPWR VGND sg13g2_decap_8
XFILLER_28_151 VPWR VGND sg13g2_decap_8
XFILLER_45_63 VPWR VGND sg13g2_decap_8
XFILLER_44_644 VPWR VGND sg13g2_decap_8
XFILLER_43_154 VPWR VGND sg13g2_decap_8
XFILLER_31_305 VPWR VGND sg13g2_decap_8
X_2512__269 VPWR VGND net268 sg13g2_tiehi
XFILLER_8_512 VPWR VGND sg13g2_fill_1
XFILLER_40_872 VPWR VGND sg13g2_decap_8
X_2443__319 VPWR VGND net318 sg13g2_tiehi
XFILLER_3_250 VPWR VGND sg13g2_decap_8
X_2121_ VGND VPWR _0979_ _0750_ _0288_ net73 sg13g2_a21oi_1
XFILLER_39_427 VPWR VGND sg13g2_decap_8
X_2052_ _0715_ net158 _0714_ VPWR VGND sg13g2_nand2_1
XFILLER_19_151 VPWR VGND sg13g2_decap_8
XFILLER_48_994 VPWR VGND sg13g2_decap_8
XFILLER_35_644 VPWR VGND sg13g2_decap_8
XFILLER_23_806 VPWR VGND sg13g2_fill_2
XFILLER_22_316 VPWR VGND sg13g2_decap_8
XFILLER_34_154 VPWR VGND sg13g2_decap_8
XFILLER_31_872 VPWR VGND sg13g2_decap_4
X_1905_ VGND VPWR _0595_ _0596_ _0225_ _0597_ sg13g2_a21oi_1
XFILLER_30_382 VPWR VGND sg13g2_decap_8
X_1836_ state\[84\] daisychain\[84\] net153 _0542_ VPWR VGND sg13g2_mux2_1
X_1767_ _0487_ net177 _0486_ VPWR VGND sg13g2_nand2_1
X_1698_ VGND VPWR net116 daisychain\[55\] _0432_ net57 sg13g2_a21oi_1
X_2319_ net315 VGND VPWR _0135_ daisychain\[7\] clknet_leaf_16_clk sg13g2_dfrbpq_1
XFILLER_13_305 VPWR VGND sg13g2_decap_8
XFILLER_25_165 VPWR VGND sg13g2_decap_8
XFILLER_13_338 VPWR VGND sg13g2_decap_4
XFILLER_15_33 VPWR VGND sg13g2_fill_2
XFILLER_41_658 VPWR VGND sg13g2_decap_8
XFILLER_40_168 VPWR VGND sg13g2_decap_8
XFILLER_21_382 VPWR VGND sg13g2_decap_8
XFILLER_31_32 VPWR VGND sg13g2_decap_8
Xoutput10 net10 uio_out[3] VPWR VGND sg13g2_buf_1
Xoutput21 net21 uo_out[6] VPWR VGND sg13g2_buf_1
Xoutput8 net8 uio_out[1] VPWR VGND sg13g2_buf_1
XFILLER_0_231 VPWR VGND sg13g2_decap_8
XFILLER_49_725 VPWR VGND sg13g2_decap_8
XFILLER_48_224 VPWR VGND sg13g2_decap_8
XFILLER_44_441 VPWR VGND sg13g2_decap_8
XFILLER_29_493 VPWR VGND sg13g2_decap_8
XFILLER_16_176 VPWR VGND sg13g2_decap_8
XFILLER_31_102 VPWR VGND sg13g2_decap_8
XFILLER_32_669 VPWR VGND sg13g2_decap_8
XFILLER_31_179 VPWR VGND sg13g2_decap_8
XFILLER_8_331 VPWR VGND sg13g2_decap_8
X_1621_ state\[41\] daisychain\[41\] net143 _1014_ VPWR VGND sg13g2_mux2_1
XFILLER_8_397 VPWR VGND sg13g2_fill_2
X_1552_ _0959_ net164 _0958_ VPWR VGND sg13g2_nand2_1
X_1483_ VGND VPWR net95 daisychain\[12\] _0904_ net46 sg13g2_a21oi_1
XFILLER_39_224 VPWR VGND sg13g2_decap_8
X_2104_ _0742_ net102 state\[24\] VPWR VGND sg13g2_nand2_1
XFILLER_48_791 VPWR VGND sg13g2_decap_8
XFILLER_36_931 VPWR VGND sg13g2_decap_8
X_2035_ VGND VPWR _0699_ _0700_ _0251_ _0701_ sg13g2_a21oi_1
XFILLER_36_942 VPWR VGND sg13g2_fill_2
XFILLER_35_441 VPWR VGND sg13g2_decap_8
XFILLER_22_113 VPWR VGND sg13g2_decap_8
X_2350__254 VPWR VGND net253 sg13g2_tiehi
XFILLER_31_680 VPWR VGND sg13g2_fill_1
XFILLER_31_691 VPWR VGND sg13g2_decap_4
X_1819_ net197 VPWR _0529_ VGND daisychain\[80\] net38 sg13g2_o21ai_1
X_2426__358 VPWR VGND net357 sg13g2_tiehi
XFILLER_18_419 VPWR VGND sg13g2_decap_8
XFILLER_46_728 VPWR VGND sg13g2_decap_8
XFILLER_45_238 VPWR VGND sg13g2_decap_8
XFILLER_39_791 VPWR VGND sg13g2_decap_8
XFILLER_27_953 VPWR VGND sg13g2_decap_4
XFILLER_26_32 VPWR VGND sg13g2_decap_8
XFILLER_27_975 VPWR VGND sg13g2_fill_2
XFILLER_26_452 VPWR VGND sg13g2_decap_8
XFILLER_42_945 VPWR VGND sg13g2_fill_2
XFILLER_41_455 VPWR VGND sg13g2_decap_8
XFILLER_13_179 VPWR VGND sg13g2_decap_8
XFILLER_42_42 VPWR VGND sg13g2_decap_8
XFILLER_5_334 VPWR VGND sg13g2_decap_8
XFILLER_49_522 VPWR VGND sg13g2_decap_8
XFILLER_49_599 VPWR VGND sg13g2_decap_8
XFILLER_37_728 VPWR VGND sg13g2_fill_1
XFILLER_17_430 VPWR VGND sg13g2_fill_2
XFILLER_18_931 VPWR VGND sg13g2_fill_1
XFILLER_18_953 VPWR VGND sg13g2_fill_1
XFILLER_36_238 VPWR VGND sg13g2_decap_8
XFILLER_29_290 VPWR VGND sg13g2_decap_8
XFILLER_33_901 VPWR VGND sg13g2_fill_2
XFILLER_32_466 VPWR VGND sg13g2_decap_8
XFILLER_34_1022 VPWR VGND sg13g2_decap_8
XFILLER_12_190 VPWR VGND sg13g2_decap_8
XFILLER_9_695 VPWR VGND sg13g2_decap_8
X_1604_ net192 VPWR _1001_ VGND daisychain\[37\] net33 sg13g2_o21ai_1
X_1535_ VGND VPWR _0943_ _0944_ _0151_ _0945_ sg13g2_a21oi_1
Xfanout129 net132 net129 VPWR VGND sg13g2_buf_1
Xfanout118 net119 net118 VPWR VGND sg13g2_buf_1
Xfanout107 net112 net107 VPWR VGND sg13g2_buf_1
X_1466_ state\[10\] daisychain\[10\] net136 _0890_ VPWR VGND sg13g2_mux2_1
X_2495__367 VPWR VGND net366 sg13g2_tiehi
X_1397_ VPWR _0034_ state\[15\] VGND sg13g2_inv_1
XFILLER_27_238 VPWR VGND sg13g2_decap_8
X_2018_ VGND VPWR net97 daisychain\[119\] _0688_ net47 sg13g2_a21oi_1
XFILLER_23_444 VPWR VGND sg13g2_decap_8
XFILLER_11_639 VPWR VGND sg13g2_decap_8
XFILLER_2_337 VPWR VGND sg13g2_decap_8
XFILLER_19_706 VPWR VGND sg13g2_fill_2
XFILLER_46_525 VPWR VGND sg13g2_decap_8
XFILLER_37_42 VPWR VGND sg13g2_decap_8
XFILLER_18_249 VPWR VGND sg13g2_decap_8
XFILLER_14_411 VPWR VGND sg13g2_decap_8
XFILLER_42_742 VPWR VGND sg13g2_decap_8
XFILLER_14_488 VPWR VGND sg13g2_fill_1
XFILLER_41_252 VPWR VGND sg13g2_decap_8
XFILLER_6_621 VPWR VGND sg13g2_fill_2
XFILLER_5_131 VPWR VGND sg13g2_decap_8
XFILLER_6_676 VPWR VGND sg13g2_fill_1
XFILLER_45_7 VPWR VGND sg13g2_decap_8
X_1320_ VPWR _0119_ state\[92\] VGND sg13g2_inv_1
X_2379__452 VPWR VGND net451 sg13g2_tiehi
XFILLER_37_525 VPWR VGND sg13g2_decap_8
XFILLER_49_396 VPWR VGND sg13g2_decap_8
XFILLER_18_761 VPWR VGND sg13g2_fill_2
XFILLER_17_260 VPWR VGND sg13g2_decap_8
XFILLER_33_742 VPWR VGND sg13g2_decap_8
XFILLER_20_403 VPWR VGND sg13g2_decap_8
XFILLER_32_263 VPWR VGND sg13g2_decap_8
XFILLER_21_959 VPWR VGND sg13g2_decap_8
XFILLER_0_808 VPWR VGND sg13g2_decap_8
X_2567_ net456 VGND VPWR _0383_ state\[127\] clknet_leaf_0_clk sg13g2_dfrbpq_1
X_2498_ net354 VGND VPWR _0314_ state\[58\] clknet_leaf_9_clk sg13g2_dfrbpq_1
X_1518_ VGND VPWR net98 daisychain\[19\] _0932_ net49 sg13g2_a21oi_1
X_1449_ net182 VPWR _0877_ VGND daisychain\[6\] net23 sg13g2_o21ai_1
XFILLER_28_536 VPWR VGND sg13g2_decap_8
XFILLER_16_709 VPWR VGND sg13g2_fill_1
XFILLER_43_539 VPWR VGND sg13g2_decap_8
XFILLER_24_731 VPWR VGND sg13g2_fill_2
XFILLER_23_241 VPWR VGND sg13g2_decap_8
XFILLER_23_11 VPWR VGND sg13g2_decap_8
XFILLER_11_469 VPWR VGND sg13g2_fill_1
XFILLER_23_66 VPWR VGND sg13g2_decap_8
XFILLER_3_679 VPWR VGND sg13g2_fill_2
XFILLER_2_134 VPWR VGND sg13g2_decap_8
XFILLER_19_514 VPWR VGND sg13g2_fill_1
XFILLER_48_63 VPWR VGND sg13g2_decap_8
XFILLER_47_812 VPWR VGND sg13g2_decap_8
XFILLER_46_322 VPWR VGND sg13g2_decap_8
XFILLER_47_889 VPWR VGND sg13g2_decap_8
X_2515__245 VPWR VGND net244 sg13g2_tiehi
XFILLER_46_399 VPWR VGND sg13g2_decap_8
XFILLER_34_539 VPWR VGND sg13g2_decap_8
XFILLER_14_274 VPWR VGND sg13g2_decap_8
XFILLER_9_13 VPWR VGND sg13g2_decap_4
XFILLER_30_701 VPWR VGND sg13g2_fill_2
XFILLER_31_1003 VPWR VGND sg13g2_fill_1
XFILLER_10_491 VPWR VGND sg13g2_decap_8
XFILLER_6_462 VPWR VGND sg13g2_decap_8
X_2421_ net367 VGND VPWR _0237_ daisychain\[109\] clknet_leaf_7_clk sg13g2_dfrbpq_1
X_2352_ net249 VGND VPWR _0168_ daisychain\[40\] clknet_leaf_13_clk sg13g2_dfrbpq_1
X_2283_ VGND VPWR _0659_ _0831_ _0369_ net76 sg13g2_a21oi_1
X_1303_ VPWR _0010_ state\[109\] VGND sg13g2_inv_1
XFILLER_49_193 VPWR VGND sg13g2_decap_8
XFILLER_38_856 VPWR VGND sg13g2_fill_2
XFILLER_37_322 VPWR VGND sg13g2_decap_8
XFILLER_37_399 VPWR VGND sg13g2_decap_8
XFILLER_33_550 VPWR VGND sg13g2_decap_8
XFILLER_20_200 VPWR VGND sg13g2_decap_8
XFILLER_21_745 VPWR VGND sg13g2_fill_2
XFILLER_20_277 VPWR VGND sg13g2_decap_8
X_1998_ VGND VPWR net100 daisychain\[115\] _0672_ net50 sg13g2_a21oi_1
XFILLER_48_609 VPWR VGND sg13g2_decap_8
XFILLER_47_119 VPWR VGND sg13g2_decap_8
XFILLER_29_823 VPWR VGND sg13g2_decap_8
XFILLER_28_333 VPWR VGND sg13g2_decap_8
XFILLER_18_88 VPWR VGND sg13g2_decap_8
XFILLER_44_826 VPWR VGND sg13g2_decap_8
XFILLER_43_336 VPWR VGND sg13g2_decap_8
XFILLER_34_21 VPWR VGND sg13g2_decap_8
XFILLER_34_98 VPWR VGND sg13g2_decap_8
XFILLER_11_244 VPWR VGND sg13g2_decap_8
XFILLER_8_738 VPWR VGND sg13g2_decap_4
XFILLER_8_727 VPWR VGND sg13g2_fill_2
X_2549__385 VPWR VGND net384 sg13g2_tiehi
XFILLER_7_237 VPWR VGND sg13g2_decap_8
XFILLER_39_609 VPWR VGND sg13g2_decap_8
XFILLER_38_119 VPWR VGND sg13g2_decap_8
XFILLER_19_333 VPWR VGND sg13g2_decap_8
XFILLER_47_686 VPWR VGND sg13g2_decap_8
XFILLER_46_196 VPWR VGND sg13g2_decap_8
XFILLER_34_336 VPWR VGND sg13g2_decap_8
X_1921_ state\[101\] daisychain\[101\] net145 _0610_ VPWR VGND sg13g2_mux2_1
X_1852_ _0555_ net173 _0554_ VPWR VGND sg13g2_nand2_1
XFILLER_30_564 VPWR VGND sg13g2_decap_8
X_1783_ VGND VPWR net128 daisychain\[72\] _0500_ net64 sg13g2_a21oi_1
XFILLER_7_771 VPWR VGND sg13g2_decap_8
X_2404_ net401 VGND VPWR _0220_ daisychain\[92\] clknet_leaf_6_clk sg13g2_dfrbpq_1
XFILLER_34_0 VPWR VGND sg13g2_decap_8
X_2335_ net283 VGND VPWR _0151_ daisychain\[23\] clknet_leaf_12_clk sg13g2_dfrbpq_1
XFILLER_29_108 VPWR VGND sg13g2_decap_8
X_2266_ _0823_ net109 state\[105\] VPWR VGND sg13g2_nand2_1
X_2197_ VGND VPWR _0487_ _0788_ _0326_ net86 sg13g2_a21oi_1
XFILLER_38_686 VPWR VGND sg13g2_decap_8
XFILLER_37_196 VPWR VGND sg13g2_decap_8
XFILLER_26_859 VPWR VGND sg13g2_fill_1
XFILLER_25_347 VPWR VGND sg13g2_decap_8
XFILLER_34_881 VPWR VGND sg13g2_decap_4
XFILLER_5_719 VPWR VGND sg13g2_decap_8
XFILLER_4_218 VPWR VGND sg13g2_decap_8
XFILLER_20_67 VPWR VGND sg13g2_decap_8
XFILLER_0_413 VPWR VGND sg13g2_decap_8
X_2360__234 VPWR VGND net233 sg13g2_tiehi