* NGSPICE file created from heichips25_pudding.ext - technology: ihp-sg13g2

* Black-box entry subcircuit for sg13g2_decap_8 abstract view
.subckt sg13g2_decap_8 VDD VSS
.ends

* Black-box entry subcircuit for sg13g2_fill_1 abstract view
.subckt sg13g2_fill_1 VDD VSS
.ends

* Black-box entry subcircuit for sg13g2_nand2_1 abstract view
.subckt sg13g2_nand2_1 Y A B VDD VSS
.ends

* Black-box entry subcircuit for sg13g2_a221oi_1 abstract view
.subckt sg13g2_a221oi_1 VDD VSS B2 C1 B1 A1 Y A2
.ends

* Black-box entry subcircuit for sg13g2_fill_2 abstract view
.subckt sg13g2_fill_2 VDD VSS
.ends

* Black-box entry subcircuit for sg13g2_decap_4 abstract view
.subckt sg13g2_decap_4 VDD VSS
.ends

* Black-box entry subcircuit for sg13g2_o21ai_1 abstract view
.subckt sg13g2_o21ai_1 B1 VDD Y VSS A1 A2
.ends

* Black-box entry subcircuit for sg13g2_buf_1 abstract view
.subckt sg13g2_buf_1 A X VDD VSS
.ends

* Black-box entry subcircuit for sg13g2_inv_1 abstract view
.subckt sg13g2_inv_1 VDD Y A VSS
.ends

* Black-box entry subcircuit for sg13g2_tiehi abstract view
.subckt sg13g2_tiehi VDD VSS L_HI
.ends

* Black-box entry subcircuit for sg13g2_dfrbpq_1 abstract view
.subckt sg13g2_dfrbpq_1 RESET_B VSS VDD D Q CLK
.ends

* Black-box entry subcircuit for sg13g2_a21oi_1 abstract view
.subckt sg13g2_a21oi_1 VSS VDD A1 A2 Y B1
.ends

* Black-box entry subcircuit for sg13g2_a21o_1 abstract view
.subckt sg13g2_a21o_1 A2 A1 B1 X VDD VSS
.ends

* Black-box entry subcircuit for sg13g2_antennanp abstract view
.subckt sg13g2_antennanp VDD VSS A
.ends

* Black-box entry subcircuit for sg13g2_buf_8 abstract view
.subckt sg13g2_buf_8 A X VDD VSS
.ends

* Black-box entry subcircuit for sg13g2_inv_8 abstract view
.subckt sg13g2_inv_8 Y A VDD VSS
.ends

* Black-box entry subcircuit for sg13g2_buf_16 abstract view
.subckt sg13g2_buf_16 X A VDD VSS
.ends

* Black-box entry subcircuit for sg13g2_inv_4 abstract view
.subckt sg13g2_inv_4 A Y VDD VSS
.ends

* Black-box entry subcircuit for sg13g2_inv_2 abstract view
.subckt sg13g2_inv_2 Y A VDD VSS
.ends

* Black-box entry subcircuit for dac128module abstract view
.subckt dac128module ON[64] ONB[64] ON[65] ONB[65] ON[66] ONB[66] ON[67] ONB[67] ON[68]
+ ONB[68] ON[69] ONB[69] ON[70] ONB[70] ON[71] ONB[71] ON[72] ONB[72] EN[2] ENB[2]
+ ON[73] ONB[73] ON[74] ONB[74] ON[75] ONB[75] ON[76] ONB[76] ON[77] ONB[77] ON[78]
+ ONB[78] ON[79] ONB[79] ON[80] ONB[80] ON[81] ONB[81] ON[82] ONB[82] ON[83] ONB[83]
+ ON[84] ONB[84] ON[85] ONB[85] ON[86] ONB[86] ON[87] ONB[87] ON[88] ONB[88] ON[89]
+ ONB[89] ON[90] ONB[90] ON[91] ONB[91] ON[92] ONB[92] ON[93] ONB[93] ON[94] ONB[94]
+ ON[95] ONB[95] ON[96] ONB[96] ON[97] ONB[97] ON[98] ONB[98] ON[99] ONB[99] ON[100]
+ ONB[100] ON[101] ONB[101] ON[102] ONB[102] ON[103] ONB[103] ON[104] ONB[104] ON[105]
+ ONB[105] ON[106] ONB[106] ON[107] ONB[107] ON[108] ONB[108] ON[109] ONB[109] ON[110]
+ ONB[110] ON[111] ONB[111] ON[112] ONB[112] ON[113] ONB[113] ON[114] ONB[114] ON[115]
+ ONB[115] ON[116] ONB[116] ON[117] ONB[117] ON[118] ONB[118] ON[119] ONB[119] ON[120]
+ ONB[120] ON[121] ONB[121] ON[122] ONB[122] EN[3] ENB[3] ON[123] ONB[123] ON[124]
+ ONB[124] ON[125] ONB[125] ON[126] ONB[126] ON[127] ONB[127] ON[0] ONB[0] ON[1] ONB[1]
+ ON[2] ONB[2] ON[3] ONB[3] ON[4] ONB[4] ON[5] ONB[5] ON[6] EN[0] ENB[0] ONB[6] ON[7]
+ ONB[7] ON[8] ONB[8] ON[9] ONB[9] ON[10] ONB[10] ON[11] ONB[11] ON[12] ONB[12] ON[13]
+ ONB[13] ON[14] ONB[14] ON[15] ONB[15] ON[16] ONB[16] ON[17] ONB[17] ON[18] ONB[18]
+ ON[19] ONB[19] ON[20] ONB[20] ON[21] ONB[21] ON[22] ONB[22] ON[23] ONB[23] ON[24]
+ ONB[24] ON[25] ONB[25] ON[26] ONB[26] ON[27] ONB[27] ON[28] ONB[28] ON[29] ONB[29]
+ ON[30] ONB[30] ON[31] ONB[31] ON[33] ONB[33] ON[32] ONB[32] ON[34] ONB[34] ON[35]
+ ONB[35] ON[36] ONB[36] ON[37] ONB[37] ON[38] ONB[38] ON[39] ONB[39] ON[40] ONB[40]
+ ON[41] ONB[41] ON[42] ONB[42] ON[43] ONB[43] ON[44] ONB[44] ON[45] ONB[45] ON[46]
+ ONB[46] ON[47] ONB[47] ON[48] ONB[48] ON[49] ONB[49] ON[50] ONB[50] ON[51] ONB[51]
+ ON[52] ONB[52] ON[53] ONB[53] ON[54] ONB[54] ON[55] ONB[55] ON[56] ONB[56] ON[57]
+ ONB[57] ON[58] ONB[58] ON[59] ONB[59] ON[60] ONB[60] ON[61] ONB[61] ON[62] ONB[62]
+ ON[63] ONB[63] EN[1] ENB[1] VSS VDD
.ends

* Black-box entry subcircuit for sg13g2_nor2_1 abstract view
.subckt sg13g2_nor2_1 A B Y VDD VSS
.ends

.subckt heichips25_pudding VGND VPWR clk ena rst_n ui_in[0] ui_in[1] ui_in[2] ui_in[3]
+ ui_in[4] ui_in[5] ui_in[6] ui_in[7] uio_in[0] uio_in[1] uio_in[2] uio_in[3] uio_in[4]
+ uio_in[5] uio_in[6] uio_in[7] uio_oe[0] uio_oe[1] uio_oe[2] uio_oe[3] uio_oe[4]
+ uio_oe[5] uio_oe[6] uio_oe[7] uio_out[0] uio_out[1] uio_out[2] uio_out[3] uio_out[4]
+ uio_out[5] uio_out[6] uio_out[7] uo_out[0] uo_out[1] uo_out[2] uo_out[3] uo_out[4]
+ uo_out[5] uo_out[6] uo_out[7]
XFILLER_39_266 VPWR VGND sg13g2_decap_8
XFILLER_28_918 VPWR VGND sg13g2_fill_1
XFILLER_27_406 VPWR VGND sg13g2_decap_8
X_2106_ _0924_ net119 state\[26\] VPWR VGND sg13g2_nand2_1
X_2037_ VPWR VGND _0885_ net71 _0884_ _0154_ _0379_ net25 sg13g2_a221oi_1
XFILLER_22_144 VPWR VGND sg13g2_decap_8
XFILLER_7_7 VPWR VGND sg13g2_decap_8
XFILLER_19_907 VPWR VGND sg13g2_fill_2
XFILLER_18_406 VPWR VGND sg13g2_decap_8
XFILLER_46_715 VPWR VGND sg13g2_fill_1
XFILLER_19_929 VPWR VGND sg13g2_decap_8
XFILLER_45_203 VPWR VGND sg13g2_decap_8
XFILLER_42_932 VPWR VGND sg13g2_fill_2
XFILLER_27_995 VPWR VGND sg13g2_fill_2
XFILLER_26_74 VPWR VGND sg13g2_decap_8
XFILLER_26_472 VPWR VGND sg13g2_decap_8
XFILLER_42_943 VPWR VGND sg13g2_fill_2
XFILLER_13_144 VPWR VGND sg13g2_decap_8
XFILLER_14_667 VPWR VGND sg13g2_fill_1
XFILLER_9_137 VPWR VGND sg13g2_decap_8
XFILLER_42_84 VPWR VGND sg13g2_decap_8
XFILLER_5_354 VPWR VGND sg13g2_decap_8
XFILLER_1_560 VPWR VGND sg13g2_decap_8
XFILLER_3_67 VPWR VGND sg13g2_decap_8
XFILLER_49_564 VPWR VGND sg13g2_decap_8
XFILLER_37_704 VPWR VGND sg13g2_decap_4
XFILLER_36_203 VPWR VGND sg13g2_decap_8
XFILLER_18_951 VPWR VGND sg13g2_fill_1
XFILLER_44_280 VPWR VGND sg13g2_decap_8
XFILLER_32_442 VPWR VGND sg13g2_decap_8
XFILLER_20_615 VPWR VGND sg13g2_fill_2
X_1606_ net213 VPWR _0562_ VGND state\[16\] net177 sg13g2_o21ai_1
Xfanout138 net142 net138 VPWR VGND sg13g2_buf_1
Xfanout127 net136 net127 VPWR VGND sg13g2_buf_1
Xfanout116 net117 net116 VPWR VGND sg13g2_buf_1
Xfanout105 net111 net105 VPWR VGND sg13g2_buf_1
X_1537_ VPWR _0178_ daisychain\[2\] VGND sg13g2_inv_1
Xfanout149 net152 net149 VPWR VGND sg13g2_buf_1
X_1468_ VPWR _0224_ daisychain\[71\] VGND sg13g2_inv_1
X_1399_ VPWR _0031_ state\[12\] VGND sg13g2_inv_1
XFILLER_27_203 VPWR VGND sg13g2_decap_8
XFILLER_42_217 VPWR VGND sg13g2_decap_8
XFILLER_24_921 VPWR VGND sg13g2_fill_1
XFILLER_35_280 VPWR VGND sg13g2_decap_8
XFILLER_24_954 VPWR VGND sg13g2_fill_2
XFILLER_23_431 VPWR VGND sg13g2_decap_8
XFILLER_24_998 VPWR VGND sg13g2_fill_1
XFILLER_24_987 VPWR VGND sg13g2_decap_8
XFILLER_11_626 VPWR VGND sg13g2_fill_1
XFILLER_10_158 VPWR VGND sg13g2_decap_8
XFILLER_12_32 VPWR VGND sg13g2_decap_8
XFILLER_5_4 VPWR VGND sg13g2_decap_8
XFILLER_2_368 VPWR VGND sg13g2_decap_8
X_2400__304 VPWR VGND net303 sg13g2_tiehi
XFILLER_18_214 VPWR VGND sg13g2_decap_8
XFILLER_37_84 VPWR VGND sg13g2_decap_8
XFILLER_14_431 VPWR VGND sg13g2_decap_8
XFILLER_33_228 VPWR VGND sg13g2_decap_8
XFILLER_26_291 VPWR VGND sg13g2_decap_8
XFILLER_14_497 VPWR VGND sg13g2_decap_8
XFILLER_41_294 VPWR VGND sg13g2_decap_8
XFILLER_30_979 VPWR VGND sg13g2_decap_4
XFILLER_10_692 VPWR VGND sg13g2_fill_2
X_2440_ net476 VGND VPWR _0386_ state\[2\] clknet_leaf_0_clk sg13g2_dfrbpq_1
XFILLER_5_151 VPWR VGND sg13g2_decap_8
X_2371_ net361 VGND VPWR _0317_ daisychain\[61\] clknet_leaf_14_clk sg13g2_dfrbpq_1
X_1322_ VPWR _0115_ state\[89\] VGND sg13g2_inv_1
XFILLER_49_361 VPWR VGND sg13g2_decap_8
XFILLER_37_534 VPWR VGND sg13g2_decap_4
XFILLER_37_501 VPWR VGND sg13g2_decap_8
XFILLER_17_280 VPWR VGND sg13g2_decap_8
XFILLER_18_792 VPWR VGND sg13g2_fill_1
XFILLER_24_228 VPWR VGND sg13g2_decap_8
XFILLER_21_924 VPWR VGND sg13g2_decap_4
XFILLER_28_556 VPWR VGND sg13g2_decap_8
XFILLER_43_526 VPWR VGND sg13g2_decap_8
XFILLER_15_228 VPWR VGND sg13g2_decap_8
XFILLER_11_445 VPWR VGND sg13g2_decap_8
XFILLER_8_939 VPWR VGND sg13g2_fill_1
XFILLER_8_906 VPWR VGND sg13g2_fill_1
XFILLER_23_53 VPWR VGND sg13g2_decap_8
XFILLER_7_427 VPWR VGND sg13g2_decap_8
X_2428__248 VPWR VGND net247 sg13g2_tiehi
XFILLER_3_622 VPWR VGND sg13g2_decap_8
XFILLER_2_165 VPWR VGND sg13g2_decap_8
XFILLER_47_821 VPWR VGND sg13g2_fill_1
XFILLER_47_810 VPWR VGND sg13g2_decap_8
XFILLER_0_35 VPWR VGND sg13g2_decap_8
XFILLER_19_556 VPWR VGND sg13g2_fill_2
XFILLER_19_545 VPWR VGND sg13g2_decap_8
XFILLER_46_364 VPWR VGND sg13g2_decap_8
XFILLER_34_504 VPWR VGND sg13g2_decap_8
XFILLER_19_589 VPWR VGND sg13g2_fill_2
XFILLER_19_578 VPWR VGND sg13g2_decap_8
XFILLER_9_11 VPWR VGND sg13g2_decap_8
X_1940_ VGND VPWR net133 daisychain\[98\] _0813_ net46 sg13g2_a21oi_1
XFILLER_42_581 VPWR VGND sg13g2_decap_4
X_1871_ net172 _0236_ _0760_ _0761_ VPWR VGND sg13g2_a21o_1
XFILLER_9_88 VPWR VGND sg13g2_decap_8
XFILLER_30_776 VPWR VGND sg13g2_decap_4
XFILLER_7_983 VPWR VGND sg13g2_decap_8
X_2423_ net257 VGND VPWR _0369_ daisychain\[113\] clknet_leaf_4_clk sg13g2_dfrbpq_1
X_2354_ net395 VGND VPWR _0300_ daisychain\[44\] clknet_leaf_13_clk sg13g2_dfrbpq_1
X_1305_ VPWR _0007_ state\[106\] VGND sg13g2_inv_1
X_2285_ VGND VPWR _0860_ _1013_ _0499_ net87 sg13g2_a21oi_1
XFILLER_37_364 VPWR VGND sg13g2_decap_8
XFILLER_33_570 VPWR VGND sg13g2_fill_2
XFILLER_20_242 VPWR VGND sg13g2_decap_8
XFILLER_21_798 VPWR VGND sg13g2_decap_4
XFILLER_0_658 VPWR VGND sg13g2_decap_8
XFILLER_18_53 VPWR VGND sg13g2_decap_8
XFILLER_43_301 VPWR VGND sg13g2_decap_8
XFILLER_28_375 VPWR VGND sg13g2_decap_8
XFILLER_31_518 VPWR VGND sg13g2_decap_8
XFILLER_43_378 VPWR VGND sg13g2_decap_8
XFILLER_34_74 VPWR VGND sg13g2_decap_8
XFILLER_11_242 VPWR VGND sg13g2_decap_8
XFILLER_7_224 VPWR VGND sg13g2_decap_8
XFILLER_3_496 VPWR VGND sg13g2_decap_8
X_2070_ _0906_ net137 state\[8\] VPWR VGND sg13g2_nand2_1
XFILLER_19_375 VPWR VGND sg13g2_decap_8
XFILLER_46_161 VPWR VGND sg13g2_decap_8
XFILLER_34_312 VPWR VGND sg13g2_decap_8
XFILLER_34_389 VPWR VGND sg13g2_decap_8
X_1923_ net177 _0250_ _0799_ _0800_ VPWR VGND sg13g2_a21o_1
X_1854_ net224 VPWR _0748_ VGND state\[78\] net196 sg13g2_o21ai_1
XFILLER_30_584 VPWR VGND sg13g2_fill_2
X_1785_ VPWR VGND _0696_ net98 _0695_ _0212_ _0316_ net56 sg13g2_a221oi_1
X_2406_ net291 VGND VPWR _0352_ daisychain\[96\] clknet_leaf_7_clk sg13g2_dfrbpq_1
X_2337_ net429 VGND VPWR _0283_ daisychain\[27\] clknet_leaf_17_clk sg13g2_dfrbpq_1
X_2268_ _1005_ net131 state\[107\] VPWR VGND sg13g2_nand2_1
X_2199_ VGND VPWR _0731_ _0970_ _0456_ net108 sg13g2_a21oi_1
XFILLER_37_161 VPWR VGND sg13g2_decap_8
XFILLER_25_312 VPWR VGND sg13g2_decap_8
XFILLER_40_315 VPWR VGND sg13g2_decap_8
XFILLER_25_389 VPWR VGND sg13g2_decap_8
XFILLER_21_551 VPWR VGND sg13g2_decap_8
XFILLER_4_249 VPWR VGND sg13g2_decap_8
XFILLER_20_32 VPWR VGND sg13g2_decap_8
XFILLER_0_455 VPWR VGND sg13g2_decap_8
XFILLER_48_448 VPWR VGND sg13g2_decap_8
XFILLER_29_74 VPWR VGND sg13g2_decap_8
XFILLER_16_312 VPWR VGND sg13g2_decap_8
XFILLER_29_684 VPWR VGND sg13g2_decap_8
XFILLER_28_172 VPWR VGND sg13g2_decap_8
XFILLER_16_389 VPWR VGND sg13g2_decap_8
XFILLER_45_84 VPWR VGND sg13g2_decap_8
XFILLER_43_175 VPWR VGND sg13g2_decap_8
XFILLER_31_326 VPWR VGND sg13g2_decap_8
XFILLER_8_544 VPWR VGND sg13g2_decap_8
XANTENNA_5 VPWR VGND _0150_ sg13g2_antennanp
X_1570_ net205 VPWR _0535_ VGND state\[7\] net160 sg13g2_o21ai_1
XFILLER_6_67 VPWR VGND sg13g2_decap_8
XFILLER_6_1027 VPWR VGND sg13g2_fill_2
XFILLER_20_4 VPWR VGND sg13g2_decap_8
X_2122_ _0932_ net117 state\[34\] VPWR VGND sg13g2_nand2_1
XFILLER_26_109 VPWR VGND sg13g2_decap_8
XFILLER_19_172 VPWR VGND sg13g2_decap_8
X_2053_ VPWR VGND _0897_ net69 _0896_ _0158_ _0383_ net26 sg13g2_a221oi_1
XFILLER_35_643 VPWR VGND sg13g2_fill_2
XFILLER_35_676 VPWR VGND sg13g2_decap_8
XFILLER_34_186 VPWR VGND sg13g2_decap_8
XFILLER_22_326 VPWR VGND sg13g2_decap_8
X_1906_ net223 VPWR _0787_ VGND state\[91\] net198 sg13g2_o21ai_1
X_2487__289 VPWR VGND net288 sg13g2_tiehi
XFILLER_31_893 VPWR VGND sg13g2_fill_1
X_1837_ VPWR VGND _0735_ net109 _0734_ _0226_ _0329_ net66 sg13g2_a221oi_1
X_1768_ VGND VPWR net145 daisychain\[55\] _0684_ net53 sg13g2_a21oi_1
X_1699_ net195 _0188_ _0631_ _0632_ VPWR VGND sg13g2_a21o_1
XFILLER_26_665 VPWR VGND sg13g2_decap_8
XFILLER_15_32 VPWR VGND sg13g2_decap_8
XFILLER_41_602 VPWR VGND sg13g2_fill_2
XFILLER_26_687 VPWR VGND sg13g2_decap_8
XFILLER_13_326 VPWR VGND sg13g2_decap_8
XFILLER_40_112 VPWR VGND sg13g2_decap_8
XFILLER_25_186 VPWR VGND sg13g2_decap_8
XFILLER_9_319 VPWR VGND sg13g2_decap_8
XFILLER_40_189 VPWR VGND sg13g2_decap_8
XFILLER_22_882 VPWR VGND sg13g2_decap_4
XFILLER_31_53 VPWR VGND sg13g2_decap_8
XFILLER_5_569 VPWR VGND sg13g2_decap_8
Xoutput20 net20 uo_out[4] VPWR VGND sg13g2_buf_1
XFILLER_0_252 VPWR VGND sg13g2_decap_8
XFILLER_49_713 VPWR VGND sg13g2_decap_8
XFILLER_49_768 VPWR VGND sg13g2_fill_1
XdigitalenH.g\[1\].u.inv1 VPWR digitalenH.g\[1\].u.OUTN net7 VGND sg13g2_inv_1
XFILLER_48_245 VPWR VGND sg13g2_decap_8
XFILLER_45_941 VPWR VGND sg13g2_fill_1
XFILLER_45_930 VPWR VGND sg13g2_decap_8
XFILLER_44_462 VPWR VGND sg13g2_decap_4
XFILLER_16_186 VPWR VGND sg13g2_decap_8
XFILLER_31_123 VPWR VGND sg13g2_decap_8
X_1622_ net207 VPWR _0574_ VGND state\[20\] net165 sg13g2_o21ai_1
XFILLER_8_396 VPWR VGND sg13g2_decap_8
X_1553_ VPWR VGND _0522_ net80 _0521_ _0178_ _0258_ net34 sg13g2_a221oi_1
X_1484_ VPWR _0206_ daisychain\[55\] VGND sg13g2_inv_1
XFILLER_39_245 VPWR VGND sg13g2_decap_8
X_2105_ VGND VPWR _0590_ _0923_ _0409_ net102 sg13g2_a21oi_1
X_2036_ VGND VPWR net115 daisychain\[122\] _0885_ net25 sg13g2_a21oi_1
XFILLER_35_473 VPWR VGND sg13g2_decap_8
XFILLER_35_451 VPWR VGND sg13g2_decap_8
XFILLER_23_646 VPWR VGND sg13g2_decap_8
XFILLER_22_123 VPWR VGND sg13g2_decap_8
X_2361__382 VPWR VGND net381 sg13g2_tiehi
XFILLER_46_749 VPWR VGND sg13g2_decap_8
XFILLER_45_259 VPWR VGND sg13g2_decap_8
XFILLER_26_53 VPWR VGND sg13g2_decap_8
XFILLER_13_123 VPWR VGND sg13g2_decap_8
XFILLER_14_679 VPWR VGND sg13g2_fill_1
XFILLER_9_116 VPWR VGND sg13g2_decap_8
XFILLER_42_999 VPWR VGND sg13g2_decap_4
XFILLER_41_476 VPWR VGND sg13g2_decap_4
XFILLER_42_63 VPWR VGND sg13g2_decap_8
XFILLER_6_867 VPWR VGND sg13g2_fill_2
XFILLER_5_333 VPWR VGND sg13g2_decap_8
X_2407__290 VPWR VGND net289 sg13g2_tiehi
XFILLER_3_46 VPWR VGND sg13g2_decap_8
XFILLER_49_543 VPWR VGND sg13g2_fill_1
XFILLER_3_1008 VPWR VGND sg13g2_fill_1
XFILLER_18_930 VPWR VGND sg13g2_fill_1
XFILLER_36_259 VPWR VGND sg13g2_decap_8
XFILLER_18_985 VPWR VGND sg13g2_fill_1
XFILLER_32_410 VPWR VGND sg13g2_decap_8
XFILLER_8_193 VPWR VGND sg13g2_decap_8
X_1605_ VPWR VGND _0561_ net76 _0560_ _0162_ _0271_ net30 sg13g2_a221oi_1
X_1536_ VPWR _0189_ daisychain\[3\] VGND sg13g2_inv_1
Xfanout128 net130 net128 VPWR VGND sg13g2_buf_1
Xfanout117 net122 net117 VPWR VGND sg13g2_buf_1
Xfanout106 net110 net106 VPWR VGND sg13g2_buf_1
Xfanout139 net142 net139 VPWR VGND sg13g2_buf_1
X_1467_ VPWR _0225_ daisychain\[72\] VGND sg13g2_inv_1
X_1398_ VPWR _0032_ state\[13\] VGND sg13g2_inv_1
XFILLER_27_259 VPWR VGND sg13g2_decap_8
X_2019_ net173 _0149_ _0871_ _0872_ VPWR VGND sg13g2_a21o_1
XFILLER_24_933 VPWR VGND sg13g2_fill_1
XFILLER_23_410 VPWR VGND sg13g2_decap_8
XFILLER_23_476 VPWR VGND sg13g2_decap_8
XFILLER_10_137 VPWR VGND sg13g2_decap_8
XFILLER_12_11 VPWR VGND sg13g2_decap_8
XFILLER_12_88 VPWR VGND sg13g2_decap_8
XFILLER_3_815 VPWR VGND sg13g2_decap_8
XFILLER_2_347 VPWR VGND sg13g2_decap_8
XFILLER_37_63 VPWR VGND sg13g2_decap_8
XFILLER_33_207 VPWR VGND sg13g2_decap_8
XFILLER_14_410 VPWR VGND sg13g2_decap_8
XFILLER_26_270 VPWR VGND sg13g2_decap_8
XFILLER_30_914 VPWR VGND sg13g2_decap_8
XFILLER_41_273 VPWR VGND sg13g2_decap_8
X_2548__267 VPWR VGND net266 sg13g2_tiehi
XFILLER_5_130 VPWR VGND sg13g2_decap_8
X_2370_ net363 VGND VPWR _0316_ daisychain\[60\] clknet_leaf_14_clk sg13g2_dfrbpq_1
X_1321_ VPWR _0117_ state\[90\] VGND sg13g2_inv_1
XFILLER_2_881 VPWR VGND sg13g2_decap_8
XFILLER_49_340 VPWR VGND sg13g2_decap_8
XFILLER_37_557 VPWR VGND sg13g2_decap_8
XFILLER_24_207 VPWR VGND sg13g2_decap_8
XFILLER_21_903 VPWR VGND sg13g2_decap_8
XFILLER_32_284 VPWR VGND sg13g2_decap_8
XFILLER_20_424 VPWR VGND sg13g2_decap_8
XFILLER_9_480 VPWR VGND sg13g2_decap_8
XFILLER_0_807 VPWR VGND sg13g2_decap_8
X_2499_ net240 VGND VPWR _0445_ state\[61\] clknet_leaf_14_clk sg13g2_dfrbpq_1
X_1519_ VPWR _0168_ daisychain\[20\] VGND sg13g2_inv_1
XFILLER_15_207 VPWR VGND sg13g2_decap_8
XFILLER_16_708 VPWR VGND sg13g2_fill_2
XFILLER_43_505 VPWR VGND sg13g2_decap_8
XFILLER_11_424 VPWR VGND sg13g2_decap_8
XFILLER_7_406 VPWR VGND sg13g2_decap_8
XFILLER_23_32 VPWR VGND sg13g2_decap_8
XFILLER_23_284 VPWR VGND sg13g2_decap_8
XFILLER_3_601 VPWR VGND sg13g2_decap_8
XFILLER_2_144 VPWR VGND sg13g2_decap_8
XFILLER_48_84 VPWR VGND sg13g2_decap_8
XFILLER_0_14 VPWR VGND sg13g2_decap_8
XFILLER_46_343 VPWR VGND sg13g2_decap_8
XFILLER_47_877 VPWR VGND sg13g2_decap_4
XFILLER_14_284 VPWR VGND sg13g2_decap_8
X_1870_ net211 VPWR _0760_ VGND state\[82\] net172 sg13g2_o21ai_1
XFILLER_9_67 VPWR VGND sg13g2_decap_8
XFILLER_7_962 VPWR VGND sg13g2_decap_8
XFILLER_7_940 VPWR VGND sg13g2_decap_4
XFILLER_6_494 VPWR VGND sg13g2_decap_8
X_2422_ net259 VGND VPWR _0368_ daisychain\[112\] clknet_leaf_2_clk sg13g2_dfrbpq_1
X_2353_ net397 VGND VPWR _0299_ daisychain\[43\] clknet_leaf_13_clk sg13g2_dfrbpq_1
X_1304_ VPWR _0008_ state\[107\] VGND sg13g2_inv_1
X_2284_ _1013_ net131 state\[115\] VPWR VGND sg13g2_nand2_1
XFILLER_37_343 VPWR VGND sg13g2_decap_8
XFILLER_25_516 VPWR VGND sg13g2_decap_8
XFILLER_40_519 VPWR VGND sg13g2_decap_8
XFILLER_21_700 VPWR VGND sg13g2_decap_8
XFILLER_20_221 VPWR VGND sg13g2_decap_8
X_1999_ net171 _0144_ _0856_ _0857_ VPWR VGND sg13g2_a21o_1
XFILLER_20_298 VPWR VGND sg13g2_decap_8
XFILLER_0_637 VPWR VGND sg13g2_decap_8
XFILLER_18_32 VPWR VGND sg13g2_decap_8
XFILLER_29_844 VPWR VGND sg13g2_decap_8
XFILLER_29_833 VPWR VGND sg13g2_fill_2
XFILLER_16_516 VPWR VGND sg13g2_decap_8
XFILLER_28_354 VPWR VGND sg13g2_decap_8
XFILLER_43_357 VPWR VGND sg13g2_decap_8
XFILLER_34_53 VPWR VGND sg13g2_decap_8
XFILLER_24_582 VPWR VGND sg13g2_fill_1
XFILLER_11_221 VPWR VGND sg13g2_decap_8
XFILLER_7_203 VPWR VGND sg13g2_decap_8
XFILLER_11_298 VPWR VGND sg13g2_decap_8
XFILLER_4_932 VPWR VGND sg13g2_fill_2
XFILLER_3_475 VPWR VGND sg13g2_decap_8
XFILLER_19_354 VPWR VGND sg13g2_decap_8
XFILLER_46_140 VPWR VGND sg13g2_decap_8
XFILLER_34_368 VPWR VGND sg13g2_decap_8
XFILLER_15_571 VPWR VGND sg13g2_decap_8
XFILLER_15_582 VPWR VGND sg13g2_fill_2
X_1922_ net214 VPWR _0799_ VGND state\[95\] net177 sg13g2_o21ai_1
X_1853_ VPWR VGND _0747_ net108 _0746_ _0230_ _0333_ net65 sg13g2_a221oi_1
X_1784_ VGND VPWR net143 daisychain\[59\] _0696_ net56 sg13g2_a21oi_1
XFILLER_7_792 VPWR VGND sg13g2_decap_8
XFILLER_6_291 VPWR VGND sg13g2_decap_8
X_2405_ net293 VGND VPWR _0351_ daisychain\[95\] clknet_leaf_7_clk sg13g2_dfrbpq_1
XFILLER_41_0 VPWR VGND sg13g2_decap_8
X_2336_ net431 VGND VPWR _0282_ daisychain\[26\] clknet_leaf_17_clk sg13g2_dfrbpq_1
X_2267_ VGND VPWR _0833_ _1004_ _0490_ net88 sg13g2_a21oi_1
X_2320__464 VPWR VGND net463 sg13g2_tiehi
XFILLER_38_652 VPWR VGND sg13g2_fill_2
XFILLER_37_140 VPWR VGND sg13g2_decap_8
X_2198_ _0970_ net155 state\[72\] VPWR VGND sg13g2_nand2_1
XFILLER_26_847 VPWR VGND sg13g2_decap_8
XFILLER_26_858 VPWR VGND sg13g2_fill_1
XFILLER_25_368 VPWR VGND sg13g2_decap_8
XFILLER_21_541 VPWR VGND sg13g2_fill_1
XFILLER_5_729 VPWR VGND sg13g2_decap_8
XFILLER_4_228 VPWR VGND sg13g2_decap_8
XFILLER_20_11 VPWR VGND sg13g2_decap_8
XFILLER_1_902 VPWR VGND sg13g2_fill_1
XFILLER_20_88 VPWR VGND sg13g2_decap_8
XFILLER_0_434 VPWR VGND sg13g2_decap_8
XFILLER_1_957 VPWR VGND sg13g2_decap_4
XFILLER_49_939 VPWR VGND sg13g2_decap_8
XFILLER_48_427 VPWR VGND sg13g2_decap_8
XFILLER_29_53 VPWR VGND sg13g2_decap_8
XFILLER_29_630 VPWR VGND sg13g2_decap_8
XFILLER_44_622 VPWR VGND sg13g2_fill_1
XFILLER_44_600 VPWR VGND sg13g2_decap_8
XFILLER_28_151 VPWR VGND sg13g2_decap_8
XFILLER_45_63 VPWR VGND sg13g2_decap_8
XFILLER_16_368 VPWR VGND sg13g2_decap_8
X_2371__362 VPWR VGND net361 sg13g2_tiehi
XFILLER_43_154 VPWR VGND sg13g2_decap_8
XFILLER_31_305 VPWR VGND sg13g2_decap_8
XFILLER_8_523 VPWR VGND sg13g2_decap_8
XANTENNA_6 VPWR VGND _0151_ sg13g2_antennanp
XFILLER_6_46 VPWR VGND sg13g2_decap_8
XFILLER_4_740 VPWR VGND sg13g2_fill_1
XFILLER_13_4 VPWR VGND sg13g2_decap_8
X_2121_ VGND VPWR _0614_ _0931_ _0417_ net78 sg13g2_a21oi_1
X_2052_ VGND VPWR net113 daisychain\[126\] _0897_ net26 sg13g2_a21oi_1
XFILLER_19_151 VPWR VGND sg13g2_decap_8
X_2417__270 VPWR VGND net269 sg13g2_tiehi
XFILLER_34_165 VPWR VGND sg13g2_decap_8
XFILLER_22_305 VPWR VGND sg13g2_decap_8
XFILLER_31_850 VPWR VGND sg13g2_decap_8
X_1905_ VPWR VGND _0786_ net104 _0785_ _0245_ _0346_ net59 sg13g2_a221oi_1
XFILLER_30_382 VPWR VGND sg13g2_decap_8
X_1836_ VGND VPWR net156 daisychain\[72\] _0735_ net66 sg13g2_a21oi_1
X_1767_ net189 _0207_ _0682_ _0683_ VPWR VGND sg13g2_a21o_1
X_1698_ net223 VPWR _0631_ VGND state\[39\] net195 sg13g2_o21ai_1
X_2319_ net465 VGND VPWR _0265_ daisychain\[9\] clknet_leaf_18_clk sg13g2_dfrbpq_1
XFILLER_13_305 VPWR VGND sg13g2_decap_8
XFILLER_15_11 VPWR VGND sg13g2_decap_8
XFILLER_25_165 VPWR VGND sg13g2_decap_8
XFILLER_15_88 VPWR VGND sg13g2_decap_8
XFILLER_40_168 VPWR VGND sg13g2_decap_8
XFILLER_22_861 VPWR VGND sg13g2_decap_8
XFILLER_21_382 VPWR VGND sg13g2_decap_8
XFILLER_31_32 VPWR VGND sg13g2_decap_8
XFILLER_5_548 VPWR VGND sg13g2_decap_8
Xoutput10 net10 uio_out[2] VPWR VGND sg13g2_buf_1
Xoutput21 net21 uo_out[5] VPWR VGND sg13g2_buf_1
Xoutput8 net8 uio_out[0] VPWR VGND sg13g2_buf_1
XFILLER_0_231 VPWR VGND sg13g2_decap_8
XFILLER_48_224 VPWR VGND sg13g2_decap_8
XdigitalenH.g\[1\].u.inv2 VPWR digitalenH.g\[1\].u.OUTP digitalenH.g\[1\].u.OUTN VGND
+ sg13g2_inv_1
XFILLER_17_600 VPWR VGND sg13g2_fill_1
XFILLER_44_441 VPWR VGND sg13g2_decap_8
XFILLER_16_165 VPWR VGND sg13g2_decap_8
XFILLER_44_485 VPWR VGND sg13g2_fill_1
XFILLER_31_102 VPWR VGND sg13g2_decap_8
XFILLER_12_382 VPWR VGND sg13g2_decap_8
XFILLER_31_179 VPWR VGND sg13g2_decap_8
XFILLER_40_691 VPWR VGND sg13g2_decap_4
X_1621_ VPWR VGND _0573_ net84 _0572_ _0166_ _0275_ net41 sg13g2_a221oi_1
XFILLER_8_375 VPWR VGND sg13g2_decap_8
X_1552_ VGND VPWR net124 daisychain\[1\] _0522_ net34 sg13g2_a21oi_1
X_1483_ VPWR _0207_ daisychain\[56\] VGND sg13g2_inv_1
XFILLER_4_581 VPWR VGND sg13g2_decap_8
XFILLER_39_224 VPWR VGND sg13g2_decap_8
X_2104_ _0923_ net140 state\[25\] VPWR VGND sg13g2_nand2_1
X_2035_ net160 _0154_ _0883_ _0884_ VPWR VGND sg13g2_a21o_1
XFILLER_35_430 VPWR VGND sg13g2_fill_2
XFILLER_23_603 VPWR VGND sg13g2_fill_1
XFILLER_22_102 VPWR VGND sg13g2_decap_8
XFILLER_10_319 VPWR VGND sg13g2_decap_8
XFILLER_22_179 VPWR VGND sg13g2_decap_8
X_1819_ net202 _0221_ _0721_ _0722_ VPWR VGND sg13g2_a21o_1
XFILLER_2_529 VPWR VGND sg13g2_decap_8
XFILLER_46_706 VPWR VGND sg13g2_decap_8
XFILLER_19_909 VPWR VGND sg13g2_fill_1
XFILLER_45_238 VPWR VGND sg13g2_decap_8
XFILLER_26_32 VPWR VGND sg13g2_decap_8
XFILLER_42_923 VPWR VGND sg13g2_decap_4
XFILLER_13_102 VPWR VGND sg13g2_decap_8
XFILLER_42_945 VPWR VGND sg13g2_fill_1
XFILLER_42_967 VPWR VGND sg13g2_fill_1
XFILLER_13_179 VPWR VGND sg13g2_decap_8
XFILLER_42_42 VPWR VGND sg13g2_decap_8
XFILLER_5_312 VPWR VGND sg13g2_decap_8
XFILLER_5_389 VPWR VGND sg13g2_decap_8
XFILLER_3_25 VPWR VGND sg13g2_decap_8
XFILLER_49_522 VPWR VGND sg13g2_decap_8
XFILLER_1_595 VPWR VGND sg13g2_decap_8
XFILLER_18_964 VPWR VGND sg13g2_fill_1
XFILLER_36_238 VPWR VGND sg13g2_decap_8
XFILLER_45_761 VPWR VGND sg13g2_fill_1
XFILLER_32_477 VPWR VGND sg13g2_fill_1
XFILLER_9_684 VPWR VGND sg13g2_decap_8
XFILLER_8_172 VPWR VGND sg13g2_decap_8
X_1604_ VGND VPWR net119 daisychain\[14\] _0561_ net30 sg13g2_a21oi_1
X_1535_ VPWR _0200_ daisychain\[4\] VGND sg13g2_inv_1
Xfanout129 net130 net129 VPWR VGND sg13g2_buf_1
Xfanout118 net121 net118 VPWR VGND sg13g2_buf_1
Xfanout107 net110 net107 VPWR VGND sg13g2_buf_1
X_1466_ VPWR _0226_ daisychain\[73\] VGND sg13g2_inv_1
X_1397_ VPWR _0033_ state\[14\] VGND sg13g2_inv_1
XFILLER_27_238 VPWR VGND sg13g2_decap_8
X_2018_ net217 VPWR _0871_ VGND state\[119\] net173 sg13g2_o21ai_1
XFILLER_24_912 VPWR VGND sg13g2_decap_8
XFILLER_10_116 VPWR VGND sg13g2_decap_8
XFILLER_6_109 VPWR VGND sg13g2_decap_8
XFILLER_12_67 VPWR VGND sg13g2_decap_8
XFILLER_2_326 VPWR VGND sg13g2_decap_8
XFILLER_37_42 VPWR VGND sg13g2_decap_8
XFILLER_18_249 VPWR VGND sg13g2_decap_8
XFILLER_46_547 VPWR VGND sg13g2_fill_2
XFILLER_18_1028 VPWR VGND sg13g2_fill_1
XFILLER_42_742 VPWR VGND sg13g2_decap_8
XFILLER_42_775 VPWR VGND sg13g2_fill_2
XFILLER_41_252 VPWR VGND sg13g2_decap_8
XFILLER_5_186 VPWR VGND sg13g2_decap_8
XFILLER_45_7 VPWR VGND sg13g2_decap_8
X_1320_ VPWR _0118_ state\[91\] VGND sg13g2_inv_1
XFILLER_2_860 VPWR VGND sg13g2_decap_8
XFILLER_1_392 VPWR VGND sg13g2_decap_8
XFILLER_49_396 VPWR VGND sg13g2_decap_8
XFILLER_18_761 VPWR VGND sg13g2_fill_1
XFILLER_32_263 VPWR VGND sg13g2_decap_8
XFILLER_20_403 VPWR VGND sg13g2_decap_8
XFILLER_20_469 VPWR VGND sg13g2_decap_8
X_2498_ net244 VGND VPWR _0444_ state\[60\] clknet_leaf_15_clk sg13g2_dfrbpq_1
X_1518_ VPWR _0169_ daisychain\[21\] VGND sg13g2_inv_1
X_1449_ VPWR _0245_ daisychain\[90\] VGND sg13g2_inv_1
XFILLER_28_503 VPWR VGND sg13g2_decap_8
XFILLER_28_536 VPWR VGND sg13g2_decap_4
XFILLER_43_517 VPWR VGND sg13g2_decap_4
XFILLER_11_403 VPWR VGND sg13g2_decap_8
XFILLER_23_263 VPWR VGND sg13g2_decap_8
XFILLER_23_11 VPWR VGND sg13g2_decap_8
X_2330__444 VPWR VGND net443 sg13g2_tiehi
XFILLER_8_919 VPWR VGND sg13g2_fill_1
XFILLER_23_88 VPWR VGND sg13g2_decap_8
XFILLER_3_668 VPWR VGND sg13g2_fill_1
XFILLER_3_657 VPWR VGND sg13g2_decap_8
XFILLER_2_123 VPWR VGND sg13g2_decap_8
XFILLER_24_1021 VPWR VGND sg13g2_decap_8
XFILLER_48_63 VPWR VGND sg13g2_decap_8
XFILLER_19_503 VPWR VGND sg13g2_fill_2
XFILLER_46_322 VPWR VGND sg13g2_decap_8
XFILLER_46_399 VPWR VGND sg13g2_decap_8
XFILLER_14_263 VPWR VGND sg13g2_decap_8
XFILLER_9_46 VPWR VGND sg13g2_decap_8
XFILLER_10_480 VPWR VGND sg13g2_decap_8
X_2381__342 VPWR VGND net341 sg13g2_tiehi
XFILLER_6_473 VPWR VGND sg13g2_decap_8
X_2421_ net261 VGND VPWR _0367_ daisychain\[111\] clknet_leaf_2_clk sg13g2_dfrbpq_1
X_2352_ net399 VGND VPWR _0298_ daisychain\[42\] clknet_leaf_13_clk sg13g2_dfrbpq_1
X_2283_ VGND VPWR _0857_ _1012_ _0498_ net81 sg13g2_a21oi_1
X_1303_ VPWR _0009_ state\[108\] VGND sg13g2_inv_1
XFILLER_49_193 VPWR VGND sg13g2_decap_8
XFILLER_37_322 VPWR VGND sg13g2_decap_8
XFILLER_18_580 VPWR VGND sg13g2_decap_4
XFILLER_37_399 VPWR VGND sg13g2_decap_8
XFILLER_20_200 VPWR VGND sg13g2_decap_8
X_1998_ net212 VPWR _0856_ VGND state\[114\] net171 sg13g2_o21ai_1
XFILLER_20_277 VPWR VGND sg13g2_decap_8
X_2427__250 VPWR VGND net249 sg13g2_tiehi
XFILLER_47_1010 VPWR VGND sg13g2_fill_2
XFILLER_0_616 VPWR VGND sg13g2_decap_8
XFILLER_47_119 VPWR VGND sg13g2_decap_8
XFILLER_18_11 VPWR VGND sg13g2_decap_8
XFILLER_28_333 VPWR VGND sg13g2_decap_8
X_2358__388 VPWR VGND net387 sg13g2_tiehi
XFILLER_29_889 VPWR VGND sg13g2_fill_2
XFILLER_18_88 VPWR VGND sg13g2_decap_8
X_2512__407 VPWR VGND net406 sg13g2_tiehi
XFILLER_44_848 VPWR VGND sg13g2_fill_2
X_2551__467 VPWR VGND net466 sg13g2_tiehi
XFILLER_43_336 VPWR VGND sg13g2_decap_8
XFILLER_12_701 VPWR VGND sg13g2_fill_1
XFILLER_34_32 VPWR VGND sg13g2_decap_8
XFILLER_11_200 VPWR VGND sg13g2_decap_8
XFILLER_12_723 VPWR VGND sg13g2_decap_8
XFILLER_8_716 VPWR VGND sg13g2_decap_8
XFILLER_11_277 VPWR VGND sg13g2_decap_8
XFILLER_7_259 VPWR VGND sg13g2_decap_8
XFILLER_3_421 VPWR VGND sg13g2_fill_1
XFILLER_3_410 VPWR VGND sg13g2_decap_8
XFILLER_4_977 VPWR VGND sg13g2_fill_1
XFILLER_3_454 VPWR VGND sg13g2_decap_8
XFILLER_1_0 VPWR VGND sg13g2_decap_8
XFILLER_38_119 VPWR VGND sg13g2_decap_8
XFILLER_19_333 VPWR VGND sg13g2_decap_8
XFILLER_47_675 VPWR VGND sg13g2_fill_2
XFILLER_46_196 VPWR VGND sg13g2_decap_8
XFILLER_34_347 VPWR VGND sg13g2_decap_8
XFILLER_15_550 VPWR VGND sg13g2_decap_8
X_1921_ VPWR VGND _0798_ net89 _0797_ _0249_ _0350_ net47 sg13g2_a221oi_1
X_1852_ VGND VPWR net155 daisychain\[76\] _0747_ net65 sg13g2_a21oi_1
X_1783_ net189 _0212_ _0694_ _0695_ VPWR VGND sg13g2_a21o_1
XFILLER_6_270 VPWR VGND sg13g2_decap_8
X_2404_ net295 VGND VPWR _0350_ daisychain\[94\] clknet_leaf_6_clk sg13g2_dfrbpq_1
X_2335_ net433 VGND VPWR _0281_ daisychain\[25\] clknet_leaf_12_clk sg13g2_dfrbpq_1
X_2266_ _1004_ net132 state\[106\] VPWR VGND sg13g2_nand2_1
X_2197_ VGND VPWR _0728_ _0969_ _0455_ net105 sg13g2_a21oi_1
XFILLER_26_815 VPWR VGND sg13g2_decap_8
XFILLER_38_686 VPWR VGND sg13g2_fill_2
XFILLER_1_91 VPWR VGND sg13g2_decap_8
XFILLER_37_196 VPWR VGND sg13g2_decap_8
XFILLER_25_347 VPWR VGND sg13g2_decap_8
XFILLER_4_207 VPWR VGND sg13g2_decap_8
XFILLER_20_67 VPWR VGND sg13g2_decap_8
XFILLER_0_413 VPWR VGND sg13g2_decap_8
XFILLER_49_907 VPWR VGND sg13g2_decap_8
XFILLER_48_406 VPWR VGND sg13g2_decap_4
XFILLER_29_32 VPWR VGND sg13g2_decap_8
XFILLER_29_664 VPWR VGND sg13g2_decap_4
XFILLER_28_130 VPWR VGND sg13g2_decap_8
XFILLER_16_347 VPWR VGND sg13g2_decap_8
XFILLER_45_42 VPWR VGND sg13g2_decap_8
XFILLER_43_133 VPWR VGND sg13g2_decap_8
XFILLER_25_881 VPWR VGND sg13g2_decap_8
XFILLER_12_542 VPWR VGND sg13g2_decap_8
XFILLER_8_502 VPWR VGND sg13g2_decap_8
XFILLER_12_575 VPWR VGND sg13g2_decap_8
XFILLER_8_579 VPWR VGND sg13g2_decap_8
XFILLER_6_25 VPWR VGND sg13g2_decap_8
XANTENNA_7 VPWR VGND _0151_ sg13g2_antennanp
XFILLER_4_796 VPWR VGND sg13g2_fill_2
XFILLER_3_284 VPWR VGND sg13g2_decap_8
XFILLER_39_406 VPWR VGND sg13g2_decap_4
XFILLER_0_980 VPWR VGND sg13g2_decap_8
X_2120_ _0931_ net122 state\[33\] VPWR VGND sg13g2_nand2_1
XFILLER_19_130 VPWR VGND sg13g2_decap_8
X_2051_ net161 _0158_ _0895_ _0896_ VPWR VGND sg13g2_a21o_1
XFILLER_47_483 VPWR VGND sg13g2_decap_8
XFILLER_34_144 VPWR VGND sg13g2_decap_8
X_1904_ VGND VPWR net150 daisychain\[89\] _0786_ net59 sg13g2_a21oi_1
XFILLER_30_361 VPWR VGND sg13g2_decap_8
X_1835_ net202 _0226_ _0733_ _0734_ VPWR VGND sg13g2_a21o_1
X_1766_ net221 VPWR _0682_ VGND state\[56\] net189 sg13g2_o21ai_1