* NGSPICE file created from heichips25_pudding.ext - technology: ihp-sg13g2

* Black-box entry subcircuit for sg13g2_decap_8 abstract view
.subckt sg13g2_decap_8 VDD VSS
.ends

* Black-box entry subcircuit for sg13g2_nand2_1 abstract view
.subckt sg13g2_nand2_1 Y A B VDD VSS
.ends

* Black-box entry subcircuit for sg13g2_fill_2 abstract view
.subckt sg13g2_fill_2 VDD VSS
.ends

* Black-box entry subcircuit for sg13g2_tiehi abstract view
.subckt sg13g2_tiehi VDD VSS L_HI
.ends

* Black-box entry subcircuit for sg13g2_fill_1 abstract view
.subckt sg13g2_fill_1 VDD VSS
.ends

* Black-box entry subcircuit for sg13g2_decap_4 abstract view
.subckt sg13g2_decap_4 VDD VSS
.ends

* Black-box entry subcircuit for sg13g2_mux2_1 abstract view
.subckt sg13g2_mux2_1 A0 A1 S X VDD VSS
.ends

* Black-box entry subcircuit for sg13g2_buf_1 abstract view
.subckt sg13g2_buf_1 A X VDD VSS
.ends

* Black-box entry subcircuit for sg13g2_a21oi_1 abstract view
.subckt sg13g2_a21oi_1 VSS VDD A1 A2 Y B1
.ends

* Black-box entry subcircuit for sg13g2_inv_1 abstract view
.subckt sg13g2_inv_1 VDD Y A VSS
.ends

* Black-box entry subcircuit for sg13g2_dfrbpq_1 abstract view
.subckt sg13g2_dfrbpq_1 RESET_B VSS VDD D Q CLK
.ends

* Black-box entry subcircuit for sg13g2_o21ai_1 abstract view
.subckt sg13g2_o21ai_1 B1 VDD Y VSS A1 A2
.ends

* Black-box entry subcircuit for sg13g2_buf_8 abstract view
.subckt sg13g2_buf_8 A X VDD VSS
.ends

* Black-box entry subcircuit for sg13g2_buf_16 abstract view
.subckt sg13g2_buf_16 X A VDD VSS
.ends

* Black-box entry subcircuit for sg13g2_inv_4 abstract view
.subckt sg13g2_inv_4 A Y VDD VSS
.ends

* Black-box entry subcircuit for sg13g2_inv_2 abstract view
.subckt sg13g2_inv_2 Y A VDD VSS
.ends

* Black-box entry subcircuit for sg13g2_inv_8 abstract view
.subckt sg13g2_inv_8 Y A VDD VSS
.ends

* Black-box entry subcircuit for dac128module abstract view
.subckt dac128module VbiasP[1] IOUT VbiasP[0] ON[64] ONB[64] ON[65] ONB[65] ON[66]
+ ONB[66] ON[67] ONB[67] ON[68] ONB[68] ON[69] ONB[69] ON[70] ONB[70] ON[71] ONB[71]
+ ON[72] ONB[72] EN[2] ENB[2] ON[73] ONB[73] ON[74] ONB[74] ON[75] ONB[75] ON[76]
+ ONB[76] ON[77] ONB[77] ON[78] ONB[78] ON[79] ONB[79] ON[80] ONB[80] ON[81] ONB[81]
+ ON[82] ONB[82] ON[83] ONB[83] ON[84] ONB[84] ON[85] ONB[85] ON[86] ONB[86] ON[87]
+ ONB[87] ON[88] ONB[88] ON[89] ONB[89] ON[90] ONB[90] ON[91] ONB[91] ON[92] ONB[92]
+ ON[93] ONB[93] ON[94] ONB[94] ON[95] ONB[95] ON[96] ONB[96] ON[97] ONB[97] ON[98]
+ ONB[98] ON[99] ONB[99] ON[100] ONB[100] ON[101] ONB[101] ON[102] ONB[102] ON[103]
+ ONB[103] ON[104] ONB[104] ON[105] ONB[105] ON[106] ONB[106] ON[107] ONB[107] ON[108]
+ ONB[108] ON[109] ONB[109] ON[110] ONB[110] ON[111] ONB[111] ON[112] ONB[112] ON[113]
+ ONB[113] ON[114] ONB[114] ON[115] ONB[115] ON[116] ONB[116] ON[117] ONB[117] ON[118]
+ ONB[118] ON[119] ONB[119] ON[120] ONB[120] ON[121] ONB[121] ON[122] ONB[122] EN[3]
+ ENB[3] ON[123] ONB[123] ON[124] ONB[124] ON[125] ONB[125] ON[126] ONB[126] ON[127]
+ ONB[127] ON[0] ONB[0] ON[1] ONB[1] ON[2] ONB[2] ON[3] ONB[3] ON[4] ONB[4] ON[5]
+ ONB[5] ON[6] EN[0] ENB[0] ONB[6] ON[7] ONB[7] ON[8] ONB[8] ON[9] ONB[9] ON[10] ONB[10]
+ ON[11] ONB[11] ON[12] ONB[12] ON[13] ONB[13] ON[14] ONB[14] ON[15] ONB[15] ON[16]
+ ONB[16] ON[17] ONB[17] ON[18] ONB[18] ON[19] ONB[19] ON[20] ONB[20] ON[21] ONB[21]
+ ON[22] ONB[22] ON[23] ONB[23] ON[24] ONB[24] ON[25] ONB[25] ON[26] ONB[26] ON[27]
+ ONB[27] ON[28] ONB[28] ON[29] ONB[29] ON[30] ONB[30] ON[31] ONB[31] ON[33] ONB[33]
+ ON[32] ONB[32] ON[34] ONB[34] ON[35] ONB[35] ON[36] ONB[36] ON[37] ONB[37] ON[38]
+ ONB[38] ON[39] ONB[39] ON[40] ONB[40] ON[41] ONB[41] ON[42] ONB[42] ON[43] ONB[43]
+ ON[44] ONB[44] ON[45] ONB[45] ON[46] ONB[46] ON[47] ONB[47] ON[48] ONB[48] ON[49]
+ ONB[49] ON[50] ONB[50] ON[51] ONB[51] ON[52] ONB[52] ON[53] ONB[53] ON[54] ONB[54]
+ ON[55] ONB[55] ON[56] ONB[56] ON[57] ONB[57] ON[58] ONB[58] ON[59] ONB[59] ON[60]
+ ONB[60] ON[61] ONB[61] ON[62] ONB[62] ON[63] ONB[63] EN[1] ENB[1] VcascP[1] VcascP[0]
+ VSS VDD
.ends

* Black-box entry subcircuit for sg13g2_or2_1 abstract view
.subckt sg13g2_or2_1 VSS VDD X B A
.ends

* Black-box entry subcircuit for sg13g2_nor2_1 abstract view
.subckt sg13g2_nor2_1 A B Y VDD VSS
.ends

.subckt heichips25_pudding VGND VPWR clk ena i_in i_out rst_n ui_in[0] ui_in[1] ui_in[2]
+ ui_in[3] ui_in[4] ui_in[5] ui_in[6] ui_in[7] uio_in[0] uio_in[1] uio_in[2] uio_in[3]
+ uio_in[4] uio_in[5] uio_in[6] uio_in[7] uio_oe[0] uio_oe[1] uio_oe[2] uio_oe[3]
+ uio_oe[4] uio_oe[5] uio_oe[6] uio_oe[7] uio_out[0] uio_out[1] uio_out[2] uio_out[3]
+ uio_out[4] uio_out[5] uio_out[6] uio_out[7] uo_out[0] uo_out[1] uo_out[2] uo_out[3]
+ uo_out[4] uo_out[5] uo_out[6] uo_out[7]
XFILLER_39_266 VPWR VGND sg13g2_decap_8
X_2106_ _0743_ net100 state\[25\] VPWR VGND sg13g2_nand2_1
XFILLER_27_439 VPWR VGND sg13g2_fill_2
X_2037_ _0703_ net156 _0702_ VPWR VGND sg13g2_nand2_1
XFILLER_36_973 VPWR VGND sg13g2_decap_8
XFILLER_36_951 VPWR VGND sg13g2_decap_8
XFILLER_35_483 VPWR VGND sg13g2_decap_8
XFILLER_22_144 VPWR VGND sg13g2_decap_8
X_2537__318 VPWR VGND net317 sg13g2_tiehi
XFILLER_18_439 VPWR VGND sg13g2_decap_8
XFILLER_46_737 VPWR VGND sg13g2_decap_8
XFILLER_45_247 VPWR VGND sg13g2_decap_8
XFILLER_14_601 VPWR VGND sg13g2_fill_1
XFILLER_26_450 VPWR VGND sg13g2_decap_8
XFILLER_42_943 VPWR VGND sg13g2_decap_4
XFILLER_41_420 VPWR VGND sg13g2_decap_8
XFILLER_13_144 VPWR VGND sg13g2_decap_8
XFILLER_14_667 VPWR VGND sg13g2_fill_1
XFILLER_14_689 VPWR VGND sg13g2_decap_8
XFILLER_9_104 VPWR VGND sg13g2_decap_8
XFILLER_41_497 VPWR VGND sg13g2_decap_8
XFILLER_42_84 VPWR VGND sg13g2_decap_8
XFILLER_5_310 VPWR VGND sg13g2_decap_8
XFILLER_6_888 VPWR VGND sg13g2_decap_8
XFILLER_5_387 VPWR VGND sg13g2_decap_8
XFILLER_49_564 VPWR VGND sg13g2_decap_8
XFILLER_36_203 VPWR VGND sg13g2_decap_8
XFILLER_33_932 VPWR VGND sg13g2_fill_2
XFILLER_44_280 VPWR VGND sg13g2_decap_8
XFILLER_32_431 VPWR VGND sg13g2_decap_8
XFILLER_20_648 VPWR VGND sg13g2_fill_2
XFILLER_9_693 VPWR VGND sg13g2_decap_4
XFILLER_8_192 VPWR VGND sg13g2_decap_8
X_1606_ state\[38\] daisychain\[38\] net143 _1002_ VPWR VGND sg13g2_mux2_1
Xfanout138 net139 net138 VPWR VGND sg13g2_buf_1
Xfanout127 net132 net127 VPWR VGND sg13g2_buf_1
Xfanout116 net118 net116 VPWR VGND sg13g2_buf_1
Xfanout105 net108 net105 VPWR VGND sg13g2_buf_1
X_1537_ _0947_ net160 _0946_ VPWR VGND sg13g2_nand2_1
Xfanout149 net150 net149 VPWR VGND sg13g2_buf_1
X_1468_ VGND VPWR net95 daisychain\[9\] _0892_ net48 sg13g2_a21oi_1
X_1399_ VPWR _0032_ state\[13\] VGND sg13g2_inv_1
XFILLER_27_247 VPWR VGND sg13g2_decap_8
XFILLER_42_217 VPWR VGND sg13g2_decap_8
XFILLER_36_781 VPWR VGND sg13g2_decap_8
XFILLER_35_280 VPWR VGND sg13g2_decap_8
XFILLER_10_158 VPWR VGND sg13g2_decap_8
XFILLER_6_107 VPWR VGND sg13g2_decap_8
XFILLER_12_32 VPWR VGND sg13g2_decap_8
XFILLER_12_43 VPWR VGND sg13g2_fill_1
X_2504__328 VPWR VGND net327 sg13g2_tiehi
XFILLER_3_814 VPWR VGND sg13g2_decap_8
XFILLER_5_4 VPWR VGND sg13g2_fill_2
XFILLER_2_357 VPWR VGND sg13g2_decap_8
XFILLER_18_236 VPWR VGND sg13g2_decap_8
XFILLER_46_567 VPWR VGND sg13g2_decap_8
XFILLER_37_84 VPWR VGND sg13g2_decap_8
XFILLER_14_420 VPWR VGND sg13g2_decap_8
XFILLER_33_228 VPWR VGND sg13g2_decap_8
XFILLER_26_280 VPWR VGND sg13g2_decap_8
XFILLER_14_497 VPWR VGND sg13g2_decap_8
XFILLER_30_935 VPWR VGND sg13g2_fill_1
XFILLER_41_294 VPWR VGND sg13g2_decap_8
XFILLER_30_968 VPWR VGND sg13g2_fill_1
XFILLER_10_670 VPWR VGND sg13g2_decap_4
X_2440_ net326 VGND VPWR _0256_ state\[0\] clknet_leaf_1_clk sg13g2_dfrbpq_1
XFILLER_6_674 VPWR VGND sg13g2_fill_2
XFILLER_5_184 VPWR VGND sg13g2_decap_8
X_2371_ net208 VGND VPWR _0187_ daisychain\[59\] clknet_leaf_12_clk sg13g2_dfrbpq_1
X_1322_ VPWR _0117_ state\[90\] VGND sg13g2_inv_1
XFILLER_49_361 VPWR VGND sg13g2_decap_8
XFILLER_37_567 VPWR VGND sg13g2_decap_8
XFILLER_25_729 VPWR VGND sg13g2_decap_8
XFILLER_24_239 VPWR VGND sg13g2_decap_8
XFILLER_20_412 VPWR VGND sg13g2_decap_8
XFILLER_20_489 VPWR VGND sg13g2_decap_8
XFILLER_28_523 VPWR VGND sg13g2_fill_2
XFILLER_28_556 VPWR VGND sg13g2_decap_8
XFILLER_28_545 VPWR VGND sg13g2_fill_2
XFILLER_43_504 VPWR VGND sg13g2_decap_8
XFILLER_12_924 VPWR VGND sg13g2_fill_1
XFILLER_11_445 VPWR VGND sg13g2_decap_8
X_2467__220 VPWR VGND net219 sg13g2_tiehi
XFILLER_23_53 VPWR VGND sg13g2_decap_8
XFILLER_3_633 VPWR VGND sg13g2_decap_8
X_2521__450 VPWR VGND net449 sg13g2_tiehi
XFILLER_2_154 VPWR VGND sg13g2_decap_8
XFILLER_0_35 VPWR VGND sg13g2_decap_8
XFILLER_47_843 VPWR VGND sg13g2_decap_4
XFILLER_46_364 VPWR VGND sg13g2_decap_8
XFILLER_34_504 VPWR VGND sg13g2_decap_8
X_2370__211 VPWR VGND net210 sg13g2_tiehi
XFILLER_21_209 VPWR VGND sg13g2_decap_8
XFILLER_15_795 VPWR VGND sg13g2_fill_1
X_1940_ VGND VPWR _0623_ _0624_ _0232_ _0625_ sg13g2_a21oi_1
XFILLER_42_581 VPWR VGND sg13g2_decap_8
XFILLER_14_294 VPWR VGND sg13g2_decap_8
X_1871_ state\[91\] daisychain\[91\] net149 _0570_ VPWR VGND sg13g2_mux2_1
XFILLER_30_754 VPWR VGND sg13g2_fill_1
X_2446__304 VPWR VGND net303 sg13g2_tiehi
XFILLER_6_471 VPWR VGND sg13g2_decap_8
X_2423_ net360 VGND VPWR _0239_ daisychain\[111\] clknet_leaf_2_clk sg13g2_dfrbpq_1
X_2354_ net242 VGND VPWR _0170_ daisychain\[42\] clknet_leaf_13_clk sg13g2_dfrbpq_1
X_1305_ VPWR _0008_ state\[107\] VGND sg13g2_inv_1
X_2285_ VGND VPWR _0663_ _0832_ _0370_ net76 sg13g2_a21oi_1
XFILLER_38_854 VPWR VGND sg13g2_decap_4
XFILLER_37_364 VPWR VGND sg13g2_decap_8
X_2533__354 VPWR VGND net353 sg13g2_tiehi
XFILLER_40_518 VPWR VGND sg13g2_decap_8
XFILLER_21_732 VPWR VGND sg13g2_decap_8
XFILLER_20_286 VPWR VGND sg13g2_decap_8
X_2347__257 VPWR VGND net256 sg13g2_tiehi
XFILLER_4_419 VPWR VGND sg13g2_decap_8
XFILLER_0_636 VPWR VGND sg13g2_decap_8
XFILLER_18_75 VPWR VGND sg13g2_decap_8
XFILLER_43_301 VPWR VGND sg13g2_decap_8
XFILLER_28_353 VPWR VGND sg13g2_decap_8
XFILLER_43_378 VPWR VGND sg13g2_decap_8
XFILLER_34_63 VPWR VGND sg13g2_decap_8
XFILLER_11_242 VPWR VGND sg13g2_decap_8
XFILLER_7_257 VPWR VGND sg13g2_decap_8
XFILLER_3_430 VPWR VGND sg13g2_decap_8
XFILLER_4_986 VPWR VGND sg13g2_decap_4
XFILLER_19_331 VPWR VGND sg13g2_decap_8
X_2070_ _0725_ net100 state\[7\] VPWR VGND sg13g2_nand2_1
XFILLER_47_651 VPWR VGND sg13g2_decap_8
XFILLER_46_161 VPWR VGND sg13g2_decap_8
XFILLER_34_301 VPWR VGND sg13g2_decap_8
XFILLER_34_378 VPWR VGND sg13g2_decap_8
XFILLER_22_518 VPWR VGND sg13g2_fill_1
XFILLER_15_592 VPWR VGND sg13g2_fill_1
X_1923_ VGND VPWR net105 daisychain\[100\] _0612_ net53 sg13g2_a21oi_1
X_1854_ net193 VPWR _0557_ VGND daisychain\[87\] net38 sg13g2_o21ai_1
X_1785_ VGND VPWR _0499_ _0500_ _0201_ _0501_ sg13g2_a21oi_1
X_2406_ net394 VGND VPWR _0222_ daisychain\[94\] clknet_leaf_3_clk sg13g2_dfrbpq_1
X_2337_ net276 VGND VPWR _0153_ daisychain\[25\] clknet_leaf_15_clk sg13g2_dfrbpq_1
X_2268_ _0824_ net104 state\[106\] VPWR VGND sg13g2_nand2_1
X_2199_ VGND VPWR _0491_ _0789_ _0327_ net86 sg13g2_a21oi_1
XFILLER_37_161 VPWR VGND sg13g2_decap_8
XFILLER_25_367 VPWR VGND sg13g2_decap_8
XFILLER_13_529 VPWR VGND sg13g2_decap_8
XFILLER_40_315 VPWR VGND sg13g2_decap_8
XFILLER_4_216 VPWR VGND sg13g2_decap_8
XFILLER_20_76 VPWR VGND sg13g2_decap_8
XFILLER_0_455 VPWR VGND sg13g2_decap_8
XFILLER_48_448 VPWR VGND sg13g2_decap_8
XFILLER_29_74 VPWR VGND sg13g2_decap_8
XFILLER_28_150 VPWR VGND sg13g2_decap_8
XFILLER_29_695 VPWR VGND sg13g2_decap_8
XFILLER_16_345 VPWR VGND sg13g2_decap_8
XFILLER_45_51 VPWR VGND sg13g2_decap_8
XFILLER_44_665 VPWR VGND sg13g2_decap_8
XFILLER_43_175 VPWR VGND sg13g2_decap_8
XFILLER_31_326 VPWR VGND sg13g2_decap_8
XFILLER_12_540 VPWR VGND sg13g2_decap_8
XFILLER_8_500 VPWR VGND sg13g2_decap_8
XFILLER_40_871 VPWR VGND sg13g2_fill_2
XFILLER_8_577 VPWR VGND sg13g2_decap_8
X_1570_ VGND VPWR _0971_ _0972_ _0158_ _0973_ sg13g2_a21oi_1
XFILLER_4_750 VPWR VGND sg13g2_decap_8
XFILLER_20_4 VPWR VGND sg13g2_decap_8
X_2122_ _0751_ net113 state\[33\] VPWR VGND sg13g2_nand2_1
XFILLER_39_448 VPWR VGND sg13g2_decap_8
X_2053_ VGND VPWR net91 daisychain\[126\] _0716_ net46 sg13g2_a21oi_1
XFILLER_35_687 VPWR VGND sg13g2_fill_2
XFILLER_34_175 VPWR VGND sg13g2_decap_8
XFILLER_22_326 VPWR VGND sg13g2_decap_8
X_1906_ state\[98\] daisychain\[98\] net148 _0598_ VPWR VGND sg13g2_mux2_1
X_1837_ _0543_ net172 _0542_ VPWR VGND sg13g2_nand2_1
X_1768_ VGND VPWR net129 daisychain\[69\] _0488_ net64 sg13g2_a21oi_1
X_1699_ net190 VPWR _0433_ VGND daisychain\[56\] net35 sg13g2_o21ai_1
X_2498__352 VPWR VGND net351 sg13g2_tiehi
XFILLER_45_429 VPWR VGND sg13g2_decap_8
XFILLER_26_621 VPWR VGND sg13g2_decap_8
XFILLER_26_654 VPWR VGND sg13g2_fill_2
XFILLER_15_32 VPWR VGND sg13g2_decap_8
XFILLER_41_602 VPWR VGND sg13g2_decap_8
XFILLER_25_164 VPWR VGND sg13g2_decap_8
XFILLER_13_326 VPWR VGND sg13g2_decap_8
XFILLER_15_65 VPWR VGND sg13g2_decap_8
XFILLER_40_112 VPWR VGND sg13g2_decap_8
XFILLER_40_189 VPWR VGND sg13g2_decap_8
XFILLER_21_370 VPWR VGND sg13g2_decap_8
XFILLER_31_53 VPWR VGND sg13g2_decap_8
XFILLER_5_569 VPWR VGND sg13g2_decap_8
Xoutput20 net20 uo_out[5] VPWR VGND sg13g2_buf_1
Xoutput7 net7 uio_out[0] VPWR VGND sg13g2_buf_1
XFILLER_0_252 VPWR VGND sg13g2_decap_8
XFILLER_1_764 VPWR VGND sg13g2_decap_8
X_2477__436 VPWR VGND net435 sg13g2_tiehi
XFILLER_49_746 VPWR VGND sg13g2_decap_8
XFILLER_48_245 VPWR VGND sg13g2_decap_8
XFILLER_45_930 VPWR VGND sg13g2_decap_4
XFILLER_17_665 VPWR VGND sg13g2_decap_4
XFILLER_16_142 VPWR VGND sg13g2_decap_8
XFILLER_17_687 VPWR VGND sg13g2_decap_8
XFILLER_44_462 VPWR VGND sg13g2_decap_8
XFILLER_32_602 VPWR VGND sg13g2_decap_4
XFILLER_31_123 VPWR VGND sg13g2_decap_8
XFILLER_9_820 VPWR VGND sg13g2_decap_8
XFILLER_9_842 VPWR VGND sg13g2_fill_2
X_1622_ _1015_ net167 _1014_ VPWR VGND sg13g2_nand2_1
XFILLER_8_374 VPWR VGND sg13g2_decap_8
X_1553_ VGND VPWR net99 daisychain\[26\] _0960_ net50 sg13g2_a21oi_1
X_1484_ net180 VPWR _0905_ VGND daisychain\[13\] net25 sg13g2_o21ai_1
XFILLER_4_580 VPWR VGND sg13g2_decap_8
XFILLER_39_245 VPWR VGND sg13g2_decap_8
X_2105_ VGND VPWR _0947_ _0742_ _0280_ net71 sg13g2_a21oi_1
XFILLER_27_429 VPWR VGND sg13g2_fill_2
X_2036_ state\[124\] daisychain\[124\] net134 _0702_ VPWR VGND sg13g2_mux2_1
XFILLER_35_462 VPWR VGND sg13g2_decap_8
XFILLER_23_602 VPWR VGND sg13g2_fill_2
XFILLER_22_123 VPWR VGND sg13g2_decap_8
XFILLER_7_8 VPWR VGND sg13g2_fill_2
XFILLER_2_539 VPWR VGND sg13g2_decap_8
XFILLER_19_908 VPWR VGND sg13g2_fill_1
XFILLER_46_705 VPWR VGND sg13g2_decap_4
XFILLER_18_418 VPWR VGND sg13g2_decap_8
XFILLER_45_226 VPWR VGND sg13g2_decap_8
XFILLER_26_75 VPWR VGND sg13g2_decap_8
XFILLER_26_53 VPWR VGND sg13g2_decap_8
XFILLER_13_123 VPWR VGND sg13g2_decap_8
XFILLER_26_86 VPWR VGND sg13g2_fill_1
XFILLER_41_476 VPWR VGND sg13g2_decap_8
XFILLER_10_830 VPWR VGND sg13g2_decap_8
XFILLER_42_63 VPWR VGND sg13g2_decap_8
XFILLER_6_823 VPWR VGND sg13g2_decap_4
XFILLER_5_366 VPWR VGND sg13g2_decap_8
XFILLER_1_550 VPWR VGND sg13g2_decap_8
XFILLER_49_543 VPWR VGND sg13g2_decap_8
XFILLER_3_1019 VPWR VGND sg13g2_decap_8
XFILLER_37_738 VPWR VGND sg13g2_decap_8
XFILLER_36_259 VPWR VGND sg13g2_decap_8
XFILLER_18_996 VPWR VGND sg13g2_fill_1
XFILLER_45_760 VPWR VGND sg13g2_decap_4
XFILLER_17_484 VPWR VGND sg13g2_decap_8
XFILLER_32_410 VPWR VGND sg13g2_decap_8
XFILLER_32_487 VPWR VGND sg13g2_decap_8
XFILLER_8_171 VPWR VGND sg13g2_decap_8
X_1605_ VGND VPWR _0999_ _1000_ _0165_ _1001_ sg13g2_a21oi_1
X_1536_ state\[24\] daisychain\[24\] net138 _0946_ VPWR VGND sg13g2_mux2_1
Xfanout128 net131 net128 VPWR VGND sg13g2_buf_1
Xfanout117 net118 net117 VPWR VGND sg13g2_buf_1
Xfanout106 net107 net106 VPWR VGND sg13g2_buf_1
Xfanout139 net155 net139 VPWR VGND sg13g2_buf_1
X_1467_ _0891_ net158 _0890_ VPWR VGND sg13g2_nand2_1
X_1398_ VPWR _0033_ state\[14\] VGND sg13g2_inv_1
X_2536__330 VPWR VGND net329 sg13g2_tiehi
XFILLER_27_226 VPWR VGND sg13g2_decap_8
XFILLER_36_760 VPWR VGND sg13g2_fill_1
X_2019_ net179 VPWR _0689_ VGND daisychain\[120\] net23 sg13g2_o21ai_1
XFILLER_23_410 VPWR VGND sg13g2_decap_8
XFILLER_23_465 VPWR VGND sg13g2_fill_2
XFILLER_23_454 VPWR VGND sg13g2_decap_8
XFILLER_10_137 VPWR VGND sg13g2_decap_8
XFILLER_12_99 VPWR VGND sg13g2_decap_8
XFILLER_2_336 VPWR VGND sg13g2_decap_8
XFILLER_18_215 VPWR VGND sg13g2_decap_8
X_2357__237 VPWR VGND net236 sg13g2_tiehi
XFILLER_46_546 VPWR VGND sg13g2_decap_8
XFILLER_37_63 VPWR VGND sg13g2_decap_8
XFILLER_33_207 VPWR VGND sg13g2_decap_8
XFILLER_15_988 VPWR VGND sg13g2_decap_8
XFILLER_30_914 VPWR VGND sg13g2_fill_1
XFILLER_14_476 VPWR VGND sg13g2_decap_8
XFILLER_41_273 VPWR VGND sg13g2_decap_8
XFILLER_30_947 VPWR VGND sg13g2_fill_2
XFILLER_6_653 VPWR VGND sg13g2_decap_8
XFILLER_6_686 VPWR VGND sg13g2_fill_1
XFILLER_5_163 VPWR VGND sg13g2_decap_8
X_2370_ net210 VGND VPWR _0186_ daisychain\[58\] clknet_leaf_12_clk sg13g2_dfrbpq_1
X_1321_ VPWR _0118_ state\[91\] VGND sg13g2_inv_1
XFILLER_2_881 VPWR VGND sg13g2_decap_8
X_2559__374 VPWR VGND net373 sg13g2_tiehi
XFILLER_49_340 VPWR VGND sg13g2_decap_8
XFILLER_37_546 VPWR VGND sg13g2_decap_8
XFILLER_24_218 VPWR VGND sg13g2_decap_8
XFILLER_17_281 VPWR VGND sg13g2_decap_8
XFILLER_45_590 VPWR VGND sg13g2_decap_8
XFILLER_33_752 VPWR VGND sg13g2_fill_1
XFILLER_32_284 VPWR VGND sg13g2_decap_8
XFILLER_20_468 VPWR VGND sg13g2_decap_8
XFILLER_0_807 VPWR VGND sg13g2_decap_8
X_2499_ net347 VGND VPWR _0315_ state\[59\] clknet_leaf_12_clk sg13g2_dfrbpq_1
X_1519_ net181 VPWR _0933_ VGND daisychain\[20\] net26 sg13g2_o21ai_1
XFILLER_11_424 VPWR VGND sg13g2_decap_8
XFILLER_8_918 VPWR VGND sg13g2_fill_2
XFILLER_23_32 VPWR VGND sg13g2_decap_8
XFILLER_23_284 VPWR VGND sg13g2_decap_8
XFILLER_7_439 VPWR VGND sg13g2_decap_8
XFILLER_3_612 VPWR VGND sg13g2_decap_8
XFILLER_2_133 VPWR VGND sg13g2_decap_8
XFILLER_19_513 VPWR VGND sg13g2_decap_8
XFILLER_48_84 VPWR VGND sg13g2_decap_8
XFILLER_47_811 VPWR VGND sg13g2_decap_4
XFILLER_47_800 VPWR VGND sg13g2_decap_4
XFILLER_0_14 VPWR VGND sg13g2_decap_8
XFILLER_47_866 VPWR VGND sg13g2_fill_2
XFILLER_46_343 VPWR VGND sg13g2_decap_8
XFILLER_14_273 VPWR VGND sg13g2_decap_8
XFILLER_42_560 VPWR VGND sg13g2_decap_8
XFILLER_30_722 VPWR VGND sg13g2_fill_1
X_1870_ VGND VPWR _0567_ _0568_ _0218_ _0569_ sg13g2_a21oi_1
XFILLER_31_1024 VPWR VGND sg13g2_decap_4
XFILLER_7_984 VPWR VGND sg13g2_fill_1
XFILLER_6_450 VPWR VGND sg13g2_decap_8
X_2422_ net362 VGND VPWR _0238_ daisychain\[110\] clknet_leaf_3_clk sg13g2_dfrbpq_1
X_2353_ net244 VGND VPWR _0169_ daisychain\[41\] clknet_leaf_13_clk sg13g2_dfrbpq_1
X_1304_ VPWR _0009_ state\[108\] VGND sg13g2_inv_1
X_2284_ _0832_ net102 state\[114\] VPWR VGND sg13g2_nand2_1
XFILLER_38_844 VPWR VGND sg13g2_decap_4
XFILLER_37_343 VPWR VGND sg13g2_decap_8
XFILLER_25_505 VPWR VGND sg13g2_decap_4
XFILLER_33_560 VPWR VGND sg13g2_fill_2
XFILLER_21_711 VPWR VGND sg13g2_decap_8
XFILLER_20_265 VPWR VGND sg13g2_decap_8
X_1999_ net186 VPWR _0673_ VGND daisychain\[116\] net31 sg13g2_o21ai_1
XFILLER_0_615 VPWR VGND sg13g2_decap_8
XFILLER_28_332 VPWR VGND sg13g2_decap_8
XFILLER_18_54 VPWR VGND sg13g2_decap_8
XFILLER_16_527 VPWR VGND sg13g2_fill_1
XFILLER_44_869 VPWR VGND sg13g2_decap_8
XFILLER_43_357 VPWR VGND sg13g2_decap_8
XFILLER_34_42 VPWR VGND sg13g2_decap_8
XFILLER_24_560 VPWR VGND sg13g2_fill_1
XFILLER_11_221 VPWR VGND sg13g2_decap_8
XFILLER_11_298 VPWR VGND sg13g2_decap_8
XFILLER_7_236 VPWR VGND sg13g2_decap_8
XFILLER_4_932 VPWR VGND sg13g2_fill_2
XFILLER_3_486 VPWR VGND sg13g2_decap_8
XFILLER_19_310 VPWR VGND sg13g2_decap_8
XFILLER_47_630 VPWR VGND sg13g2_decap_8
XFILLER_46_140 VPWR VGND sg13g2_decap_8
XFILLER_19_387 VPWR VGND sg13g2_decap_8
X_2491__380 VPWR VGND net379 sg13g2_tiehi
XFILLER_34_357 VPWR VGND sg13g2_decap_8
X_1922_ _0611_ net162 _0610_ VPWR VGND sg13g2_nand2_1
X_1853_ VGND VPWR net123 daisychain\[86\] _0556_ net61 sg13g2_a21oi_1
X_1784_ net197 VPWR _0501_ VGND daisychain\[73\] net42 sg13g2_o21ai_1
X_2405_ net396 VGND VPWR _0221_ daisychain\[93\] clknet_leaf_4_clk sg13g2_dfrbpq_1
XFILLER_41_0 VPWR VGND sg13g2_decap_8
X_2336_ net278 VGND VPWR _0152_ daisychain\[24\] clknet_leaf_15_clk sg13g2_dfrbpq_1
X_2267_ VGND VPWR _0627_ _0823_ _0361_ net74 sg13g2_a21oi_1
XFILLER_37_140 VPWR VGND sg13g2_decap_8
X_2198_ _0789_ net130 state\[71\] VPWR VGND sg13g2_nand2_1
XFILLER_38_696 VPWR VGND sg13g2_decap_8
XFILLER_41_806 VPWR VGND sg13g2_fill_2
XFILLER_25_346 VPWR VGND sg13g2_decap_8
XFILLER_13_508 VPWR VGND sg13g2_decap_8
XFILLER_0_434 VPWR VGND sg13g2_decap_8
XFILLER_0_489 VPWR VGND sg13g2_decap_8
XFILLER_48_427 VPWR VGND sg13g2_decap_8
XFILLER_29_53 VPWR VGND sg13g2_decap_8
XFILLER_29_31 VPWR VGND sg13g2_decap_8
XFILLER_17_814 VPWR VGND sg13g2_decap_8
XFILLER_16_324 VPWR VGND sg13g2_decap_8
XFILLER_45_30 VPWR VGND sg13g2_decap_8
XFILLER_44_644 VPWR VGND sg13g2_decap_8
XFILLER_43_154 VPWR VGND sg13g2_decap_8
XFILLER_31_305 VPWR VGND sg13g2_decap_8
XFILLER_12_596 VPWR VGND sg13g2_decap_4
XFILLER_8_556 VPWR VGND sg13g2_decap_8
XFILLER_6_79 VPWR VGND sg13g2_decap_8
XFILLER_4_740 VPWR VGND sg13g2_fill_2
X_2558__406 VPWR VGND net405 sg13g2_tiehi
XFILLER_3_283 VPWR VGND sg13g2_decap_8
XFILLER_6_1028 VPWR VGND sg13g2_fill_1
XFILLER_6_1006 VPWR VGND sg13g2_fill_2
XFILLER_0_990 VPWR VGND sg13g2_decap_4
XFILLER_13_4 VPWR VGND sg13g2_fill_1
X_2121_ VGND VPWR _0979_ _0750_ _0288_ net79 sg13g2_a21oi_1
XFILLER_39_427 VPWR VGND sg13g2_decap_8
X_2052_ _0715_ net156 _0714_ VPWR VGND sg13g2_nand2_1
XFILLER_19_184 VPWR VGND sg13g2_decap_8
XFILLER_34_154 VPWR VGND sg13g2_decap_8
XFILLER_22_305 VPWR VGND sg13g2_decap_8
XFILLER_16_891 VPWR VGND sg13g2_fill_2
X_1905_ VGND VPWR _0595_ _0596_ _0225_ _0597_ sg13g2_a21oi_1
X_1836_ state\[84\] daisychain\[84\] net150 _0542_ VPWR VGND sg13g2_mux2_1
XFILLER_30_393 VPWR VGND sg13g2_decap_8
X_1767_ _0487_ net173 _0486_ VPWR VGND sg13g2_nand2_1
X_1698_ VGND VPWR net116 daisychain\[55\] _0432_ net58 sg13g2_a21oi_1
XFILLER_44_1001 VPWR VGND sg13g2_fill_1
X_2319_ net312 VGND VPWR _0135_ daisychain\[7\] clknet_leaf_9_clk sg13g2_dfrbpq_1
XFILLER_45_408 VPWR VGND sg13g2_decap_8
X_2316__319 VPWR VGND net318 sg13g2_tiehi
XFILLER_26_633 VPWR VGND sg13g2_decap_8
XFILLER_13_305 VPWR VGND sg13g2_decap_8
XFILLER_26_699 VPWR VGND sg13g2_fill_1
XFILLER_25_143 VPWR VGND sg13g2_decap_8
XFILLER_41_669 VPWR VGND sg13g2_fill_2
XFILLER_40_168 VPWR VGND sg13g2_decap_8
XFILLER_31_32 VPWR VGND sg13g2_decap_8
XFILLER_5_548 VPWR VGND sg13g2_decap_8
Xoutput10 net10 uio_out[3] VPWR VGND sg13g2_buf_1
Xoutput21 net21 uo_out[6] VPWR VGND sg13g2_buf_1
Xoutput8 net8 uio_out[1] VPWR VGND sg13g2_buf_1
XFILLER_1_743 VPWR VGND sg13g2_decap_8
XFILLER_0_231 VPWR VGND sg13g2_decap_8
XFILLER_49_725 VPWR VGND sg13g2_decap_8
XFILLER_48_224 VPWR VGND sg13g2_decap_8
XFILLER_16_121 VPWR VGND sg13g2_decap_8
XFILLER_44_441 VPWR VGND sg13g2_decap_8
XFILLER_16_198 VPWR VGND sg13g2_decap_8
XFILLER_32_647 VPWR VGND sg13g2_fill_2
XFILLER_31_102 VPWR VGND sg13g2_decap_8
X_2367__217 VPWR VGND net216 sg13g2_tiehi
X_2484__408 VPWR VGND net407 sg13g2_tiehi
XFILLER_31_179 VPWR VGND sg13g2_decap_8
XFILLER_12_393 VPWR VGND sg13g2_decap_8
XFILLER_8_353 VPWR VGND sg13g2_decap_8
X_1621_ state\[41\] daisychain\[41\] net145 _1014_ VPWR VGND sg13g2_mux2_1
X_1552_ _0959_ net159 _0958_ VPWR VGND sg13g2_nand2_1
X_1483_ VGND VPWR net94 daisychain\[12\] _0904_ net48 sg13g2_a21oi_1
XFILLER_39_224 VPWR VGND sg13g2_decap_8
X_2104_ _0742_ net100 state\[24\] VPWR VGND sg13g2_nand2_1
XFILLER_27_408 VPWR VGND sg13g2_decap_8
X_2035_ VGND VPWR _0699_ _0700_ _0251_ _0701_ sg13g2_a21oi_1
XFILLER_35_441 VPWR VGND sg13g2_decap_8
XFILLER_23_647 VPWR VGND sg13g2_fill_1
XFILLER_22_102 VPWR VGND sg13g2_decap_8
XFILLER_10_319 VPWR VGND sg13g2_decap_8
XFILLER_22_179 VPWR VGND sg13g2_decap_8
XFILLER_30_190 VPWR VGND sg13g2_decap_8
X_1819_ net198 VPWR _0529_ VGND daisychain\[80\] net43 sg13g2_o21ai_1
XFILLER_2_518 VPWR VGND sg13g2_decap_8
XFILLER_45_205 VPWR VGND sg13g2_decap_8
XFILLER_26_32 VPWR VGND sg13g2_decap_8
XFILLER_42_923 VPWR VGND sg13g2_fill_2
XFILLER_13_102 VPWR VGND sg13g2_decap_8
XFILLER_14_625 VPWR VGND sg13g2_decap_4
XFILLER_26_98 VPWR VGND sg13g2_fill_1
XFILLER_41_455 VPWR VGND sg13g2_decap_8
XFILLER_13_179 VPWR VGND sg13g2_decap_8
XFILLER_9_139 VPWR VGND sg13g2_decap_8
XFILLER_42_42 VPWR VGND sg13g2_decap_8
XFILLER_22_680 VPWR VGND sg13g2_decap_4
XFILLER_5_345 VPWR VGND sg13g2_decap_8
XFILLER_3_47 VPWR VGND sg13g2_fill_1
XFILLER_49_522 VPWR VGND sg13g2_decap_8
XFILLER_49_599 VPWR VGND sg13g2_decap_8
XFILLER_37_717 VPWR VGND sg13g2_decap_8
XFILLER_36_238 VPWR VGND sg13g2_decap_8
XFILLER_17_463 VPWR VGND sg13g2_decap_8
XFILLER_32_466 VPWR VGND sg13g2_decap_8
XFILLER_20_606 VPWR VGND sg13g2_decap_8
XFILLER_12_190 VPWR VGND sg13g2_decap_8
XFILLER_8_150 VPWR VGND sg13g2_decap_8
X_1604_ net188 VPWR _1001_ VGND daisychain\[37\] net33 sg13g2_o21ai_1
X_1535_ VGND VPWR _0943_ _0944_ _0151_ _0945_ sg13g2_a21oi_1
Xfanout129 net131 net129 VPWR VGND sg13g2_buf_1
Xfanout118 net121 net118 VPWR VGND sg13g2_buf_1
Xfanout107 net108 net107 VPWR VGND sg13g2_buf_1
X_1466_ state\[10\] daisychain\[10\] net136 _0890_ VPWR VGND sg13g2_mux2_1
X_1397_ VPWR _0034_ state\[15\] VGND sg13g2_inv_1
XFILLER_28_728 VPWR VGND sg13g2_fill_2
XFILLER_28_717 VPWR VGND sg13g2_decap_8
XFILLER_27_205 VPWR VGND sg13g2_decap_8
X_2018_ VGND VPWR net92 daisychain\[119\] _0688_ net47 sg13g2_a21oi_1
XFILLER_11_606 VPWR VGND sg13g2_decap_4
XFILLER_10_116 VPWR VGND sg13g2_decap_8
XFILLER_11_617 VPWR VGND sg13g2_fill_1
XFILLER_12_78 VPWR VGND sg13g2_decap_8
XFILLER_2_315 VPWR VGND sg13g2_decap_8
XFILLER_46_525 VPWR VGND sg13g2_decap_8
XFILLER_37_42 VPWR VGND sg13g2_decap_8
XFILLER_14_455 VPWR VGND sg13g2_decap_8
XFILLER_15_956 VPWR VGND sg13g2_decap_8
XFILLER_42_753 VPWR VGND sg13g2_decap_8
XFILLER_42_786 VPWR VGND sg13g2_decap_4
XFILLER_41_252 VPWR VGND sg13g2_decap_8
XFILLER_30_926 VPWR VGND sg13g2_fill_2
XFILLER_6_632 VPWR VGND sg13g2_decap_8
XFILLER_6_676 VPWR VGND sg13g2_fill_1
XFILLER_5_142 VPWR VGND sg13g2_decap_8
XFILLER_45_7 VPWR VGND sg13g2_decap_8
X_1320_ VPWR _0119_ state\[92\] VGND sg13g2_inv_1
XFILLER_37_525 VPWR VGND sg13g2_decap_8
XFILLER_49_396 VPWR VGND sg13g2_decap_8
XFILLER_17_260 VPWR VGND sg13g2_decap_8
XFILLER_33_742 VPWR VGND sg13g2_fill_2
XFILLER_32_263 VPWR VGND sg13g2_decap_8
XFILLER_20_447 VPWR VGND sg13g2_decap_8
X_2567_ net453 VGND VPWR _0383_ state\[127\] clknet_leaf_0_clk sg13g2_dfrbpq_1
X_2498_ net351 VGND VPWR _0314_ state\[58\] clknet_leaf_12_clk sg13g2_dfrbpq_1
X_1518_ VGND VPWR net97 daisychain\[19\] _0932_ net49 sg13g2_a21oi_1
X_1449_ net184 VPWR _0877_ VGND daisychain\[6\] net29 sg13g2_o21ai_1
XFILLER_4_90 VPWR VGND sg13g2_decap_8
XFILLER_28_547 VPWR VGND sg13g2_fill_1
XFILLER_15_219 VPWR VGND sg13g2_decap_8
XFILLER_43_539 VPWR VGND sg13g2_decap_8
XFILLER_11_403 VPWR VGND sg13g2_decap_8
XFILLER_23_263 VPWR VGND sg13g2_decap_8
XFILLER_23_11 VPWR VGND sg13g2_decap_8
XFILLER_7_418 VPWR VGND sg13g2_decap_8
XFILLER_23_88 VPWR VGND sg13g2_decap_8
XFILLER_2_112 VPWR VGND sg13g2_decap_8
XFILLER_3_668 VPWR VGND sg13g2_decap_8
XFILLER_2_189 VPWR VGND sg13g2_decap_8
XFILLER_48_63 VPWR VGND sg13g2_decap_8
XFILLER_19_525 VPWR VGND sg13g2_decap_8
XFILLER_46_322 VPWR VGND sg13g2_decap_8
XFILLER_46_399 VPWR VGND sg13g2_decap_8
XFILLER_34_539 VPWR VGND sg13g2_decap_8
XFILLER_14_252 VPWR VGND sg13g2_decap_8
XFILLER_9_24 VPWR VGND sg13g2_fill_2
XFILLER_9_13 VPWR VGND sg13g2_fill_1
XFILLER_30_767 VPWR VGND sg13g2_fill_1
XFILLER_10_480 VPWR VGND sg13g2_decap_8
XFILLER_7_952 VPWR VGND sg13g2_decap_8
XFILLER_7_941 VPWR VGND sg13g2_decap_8
X_2421_ net364 VGND VPWR _0237_ daisychain\[109\] clknet_leaf_3_clk sg13g2_dfrbpq_1
X_2352_ net246 VGND VPWR _0168_ daisychain\[40\] clknet_leaf_13_clk sg13g2_dfrbpq_1
X_2283_ VGND VPWR _0659_ _0831_ _0369_ net76 sg13g2_a21oi_1
X_1303_ VPWR _0010_ state\[109\] VGND sg13g2_inv_1
XFILLER_38_823 VPWR VGND sg13g2_decap_8
XFILLER_49_193 VPWR VGND sg13g2_decap_8
XFILLER_37_322 VPWR VGND sg13g2_decap_8
XFILLER_18_580 VPWR VGND sg13g2_decap_8
XFILLER_37_399 VPWR VGND sg13g2_decap_8
XFILLER_20_244 VPWR VGND sg13g2_decap_8
X_1998_ VGND VPWR net103 daisychain\[115\] _0672_ net52 sg13g2_a21oi_1
XFILLER_48_609 VPWR VGND sg13g2_decap_8
XFILLER_47_119 VPWR VGND sg13g2_decap_8
XFILLER_28_311 VPWR VGND sg13g2_decap_8
XFILLER_16_506 VPWR VGND sg13g2_decap_8
XFILLER_28_388 VPWR VGND sg13g2_decap_8
XFILLER_43_336 VPWR VGND sg13g2_decap_8
XFILLER_34_21 VPWR VGND sg13g2_decap_8
XFILLER_11_200 VPWR VGND sg13g2_decap_8
XFILLER_34_98 VPWR VGND sg13g2_decap_8
XFILLER_12_767 VPWR VGND sg13g2_fill_1
XFILLER_11_277 VPWR VGND sg13g2_decap_8
XFILLER_7_215 VPWR VGND sg13g2_decap_8
XFILLER_3_465 VPWR VGND sg13g2_decap_8
XFILLER_39_609 VPWR VGND sg13g2_fill_2
XFILLER_38_119 VPWR VGND sg13g2_decap_8
XFILLER_19_366 VPWR VGND sg13g2_decap_8
X_2376__455 VPWR VGND net454 sg13g2_tiehi
XFILLER_47_686 VPWR VGND sg13g2_decap_8
XFILLER_35_837 VPWR VGND sg13g2_decap_4
XFILLER_35_826 VPWR VGND sg13g2_decap_8
XFILLER_46_196 VPWR VGND sg13g2_decap_8
XFILLER_34_336 VPWR VGND sg13g2_decap_8
XFILLER_15_583 VPWR VGND sg13g2_fill_2
X_1921_ state\[101\] daisychain\[101\] net140 _0610_ VPWR VGND sg13g2_mux2_1
XFILLER_43_892 VPWR VGND sg13g2_decap_8
X_1852_ _0555_ net170 _0554_ VPWR VGND sg13g2_nand2_1
XFILLER_30_586 VPWR VGND sg13g2_decap_8
X_1783_ VGND VPWR net130 daisychain\[72\] _0500_ net64 sg13g2_a21oi_1
X_2404_ net398 VGND VPWR _0220_ daisychain\[92\] clknet_leaf_4_clk sg13g2_dfrbpq_1
XFILLER_34_0 VPWR VGND sg13g2_decap_8
X_2335_ net280 VGND VPWR _0151_ daisychain\[23\] clknet_leaf_14_clk sg13g2_dfrbpq_1
X_2500__344 VPWR VGND net343 sg13g2_tiehi
X_2266_ _0823_ net104 state\[105\] VPWR VGND sg13g2_nand2_1
XFILLER_38_620 VPWR VGND sg13g2_decap_8
X_2197_ VGND VPWR _0487_ _0788_ _0326_ net86 sg13g2_a21oi_1
XFILLER_25_325 VPWR VGND sg13g2_decap_8
XFILLER_37_196 VPWR VGND sg13g2_decap_8
XFILLER_21_542 VPWR VGND sg13g2_decap_8
XFILLER_5_719 VPWR VGND sg13g2_fill_2
XFILLER_0_413 VPWR VGND sg13g2_decap_8
XFILLER_48_406 VPWR VGND sg13g2_decap_8
XFILLER_29_631 VPWR VGND sg13g2_decap_8
XFILLER_16_303 VPWR VGND sg13g2_decap_8
XFILLER_44_623 VPWR VGND sg13g2_decap_8
XFILLER_43_133 VPWR VGND sg13g2_decap_8
XFILLER_28_185 VPWR VGND sg13g2_decap_8
XFILLER_45_86 VPWR VGND sg13g2_decap_8
XFILLER_40_873 VPWR VGND sg13g2_fill_1
XFILLER_12_575 VPWR VGND sg13g2_decap_8