*SPEF "ieee 1481-1999"
*DESIGN "non_overlap"
*DATE "23:51:03 Monday August 25, 2025"
*VENDOR "The OpenROAD Project"
*PROGRAM "OpenROAD"
*VERSION "341650e72dad0dc8571822ff8c5d9c5e365327f7"
*DESIGN_FLOW "NAME_SCOPE LOCAL" "PIN_CAP NONE"
*DIVIDER /
*DELIMITER :
*BUS_DELIMITER []
*T_UNIT 1 NS
*C_UNIT 1 PF
*R_UNIT 1 OHM
*L_UNIT 1 HENRY

*NAME_MAP
*1 ON[0]
*2 ON[10]
*3 ON[11]
*4 ON[12]
*5 ON[13]
*6 ON[14]
*7 ON[15]
*8 ON[16]
*9 ON[17]
*10 ON[18]
*11 ON[19]
*12 ON[1]
*13 ON[20]
*14 ON[21]
*15 ON[22]
*16 ON[23]
*17 ON[24]
*18 ON[25]
*19 ON[26]
*20 ON[27]
*21 ON[28]
*22 ON[29]
*23 ON[2]
*24 ON[30]
*25 ON[31]
*26 ON[3]
*27 ON[4]
*28 ON[5]
*29 ON[6]
*30 ON[7]
*31 ON[8]
*32 ON[9]
*33 ON_N[0]
*34 ON_N[10]
*35 ON_N[11]
*36 ON_N[12]
*37 ON_N[13]
*38 ON_N[14]
*39 ON_N[15]
*40 ON_N[16]
*41 ON_N[17]
*42 ON_N[18]
*43 ON_N[19]
*44 ON_N[1]
*45 ON_N[20]
*46 ON_N[21]
*47 ON_N[22]
*48 ON_N[23]
*49 ON_N[24]
*50 ON_N[25]
*51 ON_N[26]
*52 ON_N[27]
*53 ON_N[28]
*54 ON_N[29]
*55 ON_N[2]
*56 ON_N[30]
*57 ON_N[31]
*58 ON_N[3]
*59 ON_N[4]
*60 ON_N[5]
*61 ON_N[6]
*62 ON_N[7]
*63 ON_N[8]
*64 ON_N[9]
*67 thermo[0]
*68 thermo[10]
*69 thermo[11]
*70 thermo[12]
*71 thermo[13]
*72 thermo[14]
*73 thermo[15]
*74 thermo[16]
*75 thermo[17]
*76 thermo[18]
*77 thermo[19]
*78 thermo[1]
*79 thermo[20]
*80 thermo[21]
*81 thermo[22]
*82 thermo[23]
*83 thermo[24]
*84 thermo[25]
*85 thermo[26]
*86 thermo[27]
*87 thermo[28]
*88 thermo[29]
*89 thermo[2]
*90 thermo[30]
*91 thermo[31]
*92 thermo[3]
*93 thermo[4]
*94 thermo[5]
*95 thermo[6]
*96 thermo[7]
*97 thermo[8]
*98 thermo[9]
*99 _000_
*100 _001_
*101 _002_
*102 _003_
*103 _004_
*104 _005_
*105 _006_
*106 _007_
*107 _008_
*108 _009_
*109 _010_
*110 _011_
*111 _012_
*112 _013_
*113 _014_
*114 _015_
*115 _016_
*116 _017_
*117 _018_
*118 _019_
*119 _020_
*120 _021_
*121 _022_
*122 _023_
*123 _024_
*124 _025_
*125 _026_
*126 _027_
*127 _028_
*128 _029_
*129 _030_
*130 _031_
*131 _032_
*132 _033_
*133 _034_
*134 _035_
*135 _036_
*136 _037_
*137 _038_
*138 _039_
*139 _040_
*140 _041_
*141 _042_
*142 _043_
*143 _044_
*144 _045_
*145 _046_
*146 _047_
*147 _048_
*148 _049_
*149 _050_
*150 _051_
*151 _052_
*152 _053_
*153 _054_
*154 _055_
*155 _056_
*156 _057_
*157 _058_
*158 _059_
*159 _060_
*160 _061_
*161 _062_
*162 _063_
*163 _064_
*164 _065_
*165 _066_
*166 _067_
*167 _068_
*168 _069_
*169 _070_
*170 _071_
*171 _072_
*172 _073_
*173 _074_
*174 _075_
*175 _076_
*176 _077_
*177 _078_
*178 _079_
*179 _080_
*180 _081_
*181 _082_
*182 _083_
*183 _084_
*184 _085_
*185 _086_
*186 _087_
*187 _088_
*188 _089_
*189 _090_
*190 _091_
*191 _092_
*192 _093_
*193 _094_
*194 _095_
*195 _096_
*196 _097_
*197 _098_
*198 _099_
*199 _100_
*200 _101_
*201 _102_
*202 _103_
*203 _104_
*204 _105_
*205 _106_
*206 _107_
*207 _108_
*208 _109_
*209 _110_
*210 _111_
*211 _112_
*212 _113_
*213 _114_
*214 _115_
*215 _116_
*216 _117_
*217 _118_
*218 _119_
*219 _120_
*220 _121_
*221 _122_
*222 _123_
*223 _124_
*224 _125_
*225 _126_
*226 _127_
*227 _128_
*228 _129_
*229 _130_
*230 _131_
*231 _132_
*232 _133_
*233 _134_
*234 _135_
*235 _136_
*236 _137_
*237 _138_
*238 _139_
*239 _140_
*240 _141_
*241 _142_
*242 _143_
*243 _144_
*244 _145_
*245 _146_
*246 _147_
*247 _148_
*248 _149_
*249 _150_
*250 _151_
*251 _152_
*252 _153_
*253 _154_
*254 _155_
*255 _156_
*256 _157_
*257 _158_
*258 _159_
*259 _160_
*260 _161_
*261 _162_
*262 _163_
*263 _164_
*264 _165_
*265 _166_
*266 _167_
*267 _168_
*268 _169_
*269 _170_
*270 _171_
*271 _172_
*272 _173_
*273 _174_
*274 _175_
*275 _176_
*276 _177_
*277 _178_
*278 _179_
*279 _180_
*280 _181_
*281 _182_
*282 _183_
*283 _184_
*284 _185_
*285 _186_
*286 _187_
*287 _188_
*288 _189_
*289 _190_
*290 _191_
*291 _192_
*292 _193_
*293 _194_
*294 _195_
*295 _196_
*296 _197_
*297 _198_
*298 _199_
*299 _200_
*300 _201_
*301 _202_
*302 _203_
*303 _204_
*304 _205_
*305 _206_
*306 _207_
*307 _208_
*308 _209_
*309 _210_
*310 _211_
*311 _212_
*312 _213_
*313 _214_
*314 _215_
*315 _216_
*316 _217_
*317 _218_
*318 _219_
*319 _220_
*320 _221_
*321 _222_
*322 _223_
*323 comb_logic\[0\]\.delayed\[0\]
*324 comb_logic\[0\]\.pulse_out_n
*325 comb_logic\[10\]\.delayed\[0\]
*326 comb_logic\[10\]\.pulse_out_n
*327 comb_logic\[11\]\.delayed\[0\]
*328 comb_logic\[11\]\.pulse_out_n
*329 comb_logic\[12\]\.delayed\[0\]
*330 comb_logic\[12\]\.pulse_out_n
*331 comb_logic\[13\]\.delayed\[0\]
*332 comb_logic\[13\]\.pulse_out_n
*333 comb_logic\[14\]\.delayed\[0\]
*334 comb_logic\[14\]\.pulse_out_n
*335 comb_logic\[15\]\.delayed\[0\]
*336 comb_logic\[15\]\.pulse_out_n
*337 comb_logic\[16\]\.delayed\[0\]
*338 comb_logic\[16\]\.pulse_out_n
*339 comb_logic\[17\]\.delayed\[0\]
*340 comb_logic\[17\]\.pulse_out_n
*341 comb_logic\[18\]\.delayed\[0\]
*342 comb_logic\[18\]\.pulse_out_n
*343 comb_logic\[19\]\.delayed\[0\]
*344 comb_logic\[19\]\.pulse_out_n
*345 comb_logic\[1\]\.delayed\[0\]
*346 comb_logic\[1\]\.pulse_out_n
*347 comb_logic\[20\]\.delayed\[0\]
*348 comb_logic\[20\]\.pulse_out_n
*349 comb_logic\[21\]\.delayed\[0\]
*350 comb_logic\[21\]\.pulse_out_n
*351 comb_logic\[22\]\.delayed\[0\]
*352 comb_logic\[22\]\.pulse_out_n
*353 comb_logic\[23\]\.delayed\[0\]
*354 comb_logic\[23\]\.pulse_out_n
*355 comb_logic\[24\]\.delayed\[0\]
*356 comb_logic\[24\]\.pulse_out_n
*357 comb_logic\[25\]\.delayed\[0\]
*358 comb_logic\[25\]\.pulse_out_n
*359 comb_logic\[26\]\.delayed\[0\]
*360 comb_logic\[26\]\.pulse_out_n
*361 comb_logic\[27\]\.delayed\[0\]
*362 comb_logic\[27\]\.pulse_out_n
*363 comb_logic\[28\]\.delayed\[0\]
*364 comb_logic\[28\]\.pulse_out_n
*365 comb_logic\[29\]\.delayed\[0\]
*366 comb_logic\[29\]\.pulse_out_n
*367 comb_logic\[2\]\.delayed\[0\]
*368 comb_logic\[2\]\.pulse_out_n
*369 comb_logic\[30\]\.delayed\[0\]
*370 comb_logic\[30\]\.pulse_out_n
*371 comb_logic\[31\]\.delayed\[0\]
*372 comb_logic\[31\]\.pulse_out_n
*373 comb_logic\[3\]\.delayed\[0\]
*374 comb_logic\[3\]\.pulse_out_n
*375 comb_logic\[4\]\.delayed\[0\]
*376 comb_logic\[4\]\.pulse_out_n
*377 comb_logic\[5\]\.delayed\[0\]
*378 comb_logic\[5\]\.pulse_out_n
*379 comb_logic\[6\]\.delayed\[0\]
*380 comb_logic\[6\]\.pulse_out_n
*381 comb_logic\[7\]\.delayed\[0\]
*382 comb_logic\[7\]\.pulse_out_n
*383 comb_logic\[8\]\.delayed\[0\]
*384 comb_logic\[8\]\.pulse_out_n
*385 comb_logic\[9\]\.delayed\[0\]
*386 comb_logic\[9\]\.pulse_out_n
*387 FILLER_0_110
*388 FILLER_0_115
*389 FILLER_0_123
*390 FILLER_0_127
*391 FILLER_0_132
*392 FILLER_0_134
*393 FILLER_0_143
*394 FILLER_0_153
*395 FILLER_0_16
*396 FILLER_0_29
*397 FILLER_0_44
*398 FILLER_0_46
*399 FILLER_0_53
*400 FILLER_0_69
*401 FILLER_0_81
*402 FILLER_10_0
*403 FILLER_10_112
*404 FILLER_10_119
*405 FILLER_10_129
*406 FILLER_10_13
*407 FILLER_10_136
*408 FILLER_10_153
*409 FILLER_10_2
*410 FILLER_10_29
*411 FILLER_10_42
*412 FILLER_10_44
*413 FILLER_10_57
*414 FILLER_10_61
*415 FILLER_10_72
*416 FILLER_10_76
*417 FILLER_11_101
*418 FILLER_11_103
*419 FILLER_11_112
*420 FILLER_11_12
*421 FILLER_11_130
*422 FILLER_11_132
*423 FILLER_11_153
*424 FILLER_11_21
*425 FILLER_11_35
*426 FILLER_11_55
*427 FILLER_11_76
*428 FILLER_11_94
*429 FILLER_12_0
*430 FILLER_12_135
*431 FILLER_12_153
*432 FILLER_12_44
*433 FILLER_12_46
*434 FILLER_12_51
*435 FILLER_12_56
*436 FILLER_12_63
*437 FILLER_12_72
*438 FILLER_12_79
*439 FILLER_12_81
*440 FILLER_12_96
*441 FILLER_13_0
*442 FILLER_13_101
*443 FILLER_13_11
*444 FILLER_13_116
*445 FILLER_13_132
*446 FILLER_13_134
*447 FILLER_13_151
*448 FILLER_13_153
*449 FILLER_13_2
*450 FILLER_13_35
*451 FILLER_13_63
*452 FILLER_13_90
*453 FILLER_13_92
*454 FILLER_13_99
*455 FILLER_14_0
*456 FILLER_14_102
*457 FILLER_14_106
*458 FILLER_14_11
*459 FILLER_14_111
*460 FILLER_14_123
*461 FILLER_14_125
*462 FILLER_14_130
*463 FILLER_14_132
*464 FILLER_14_153
*465 FILLER_14_2
*466 FILLER_14_20
*467 FILLER_14_22
*468 FILLER_14_39
*469 FILLER_14_46
*470 FILLER_14_51
*471 FILLER_14_53
*472 FILLER_14_60
*473 FILLER_14_78
*474 FILLER_14_85
*475 FILLER_14_87
*476 FILLER_15_0
*477 FILLER_15_105
*478 FILLER_15_110
*479 FILLER_15_120
*480 FILLER_15_122
*481 FILLER_15_135
*482 FILLER_15_153
*483 FILLER_15_2
*484 FILLER_15_21
*485 FILLER_15_51
*486 FILLER_15_68
*487 FILLER_15_88
*488 FILLER_15_90
*489 FILLER_15_99
*490 FILLER_1_134
*491 FILLER_1_136
*492 FILLER_1_153
*493 FILLER_1_18
*494 FILLER_1_20
*495 FILLER_1_35
*496 FILLER_1_37
*497 FILLER_1_62
*498 FILLER_1_68
*499 FILLER_1_75
*500 FILLER_1_81
*501 FILLER_1_83
*502 FILLER_1_92
*503 FILLER_1_99
*504 FILLER_2_113
*505 FILLER_2_117
*506 FILLER_2_128
*507 FILLER_2_151
*508 FILLER_2_153
*509 FILLER_2_16
*510 FILLER_2_18
*511 FILLER_2_31
*512 FILLER_2_40
*513 FILLER_2_82
*514 FILLER_2_97
*515 FILLER_3_114
*516 FILLER_3_121
*517 FILLER_3_130
*518 FILLER_3_132
*519 FILLER_3_153
*520 FILLER_3_18
*521 FILLER_3_22
*522 FILLER_3_38
*523 FILLER_3_40
*524 FILLER_3_61
*525 FILLER_3_68
*526 FILLER_3_79
*527 FILLER_3_94
*528 FILLER_4_0
*529 FILLER_4_113
*530 FILLER_4_131
*531 FILLER_4_135
*532 FILLER_4_153
*533 FILLER_4_16
*534 FILLER_4_30
*535 FILLER_4_32
*536 FILLER_4_45
*537 FILLER_4_55
*538 FILLER_4_59
*539 FILLER_4_72
*540 FILLER_4_81
*541 FILLER_4_83
*542 FILLER_4_94
*543 FILLER_4_96
*544 FILLER_5_0
*545 FILLER_5_102
*546 FILLER_5_11
*547 FILLER_5_114
*548 FILLER_5_118
*549 FILLER_5_128
*550 FILLER_5_135
*551 FILLER_5_153
*552 FILLER_5_2
*553 FILLER_5_24
*554 FILLER_5_31
*555 FILLER_5_42
*556 FILLER_5_60
*557 FILLER_5_79
*558 FILLER_5_85
*559 FILLER_5_92
*560 FILLER_5_96
*561 FILLER_6_0
*562 FILLER_6_115
*563 FILLER_6_13
*564 FILLER_6_131
*565 FILLER_6_135
*566 FILLER_6_153
*567 FILLER_6_2
*568 FILLER_6_45
*569 FILLER_6_66
*570 FILLER_6_75
*571 FILLER_6_94
*572 FILLER_6_96
*573 FILLER_7_0
*574 FILLER_7_111
*575 FILLER_7_129
*576 FILLER_7_131
*577 FILLER_7_136
*578 FILLER_7_140
*579 FILLER_7_153
*580 FILLER_7_22
*581 FILLER_7_29
*582 FILLER_7_36
*583 FILLER_7_38
*584 FILLER_7_59
*585 FILLER_7_79
*586 FILLER_7_88
*587 FILLER_7_95
*588 FILLER_8_118
*589 FILLER_8_120
*590 FILLER_8_14
*591 FILLER_8_143
*592 FILLER_8_153
*593 FILLER_8_16
*594 FILLER_8_29
*595 FILLER_8_31
*596 FILLER_8_54
*597 FILLER_8_61
*598 FILLER_8_75
*599 FILLER_8_77
*600 FILLER_8_98
*601 FILLER_9_0
*602 FILLER_9_11
*603 FILLER_9_110
*604 FILLER_9_117
*605 FILLER_9_127
*606 FILLER_9_134
*607 FILLER_9_153
*608 FILLER_9_2
*609 FILLER_9_24
*610 FILLER_9_26
*611 FILLER_9_41
*612 FILLER_9_48
*613 FILLER_9_52
*614 FILLER_9_78
*615 FILLER_9_94
*616 FILLER_9_98
*617 _224_
*618 _225_
*619 _226_
*620 _227_
*621 _228_
*622 _229_
*623 _230_
*624 _231_
*625 _232_
*626 _233_
*627 _234_
*628 _235_
*629 _236_
*630 _237_
*631 _238_
*632 _239_
*633 _240_
*634 _241_
*635 _242_
*636 _243_
*637 _244_
*638 _245_
*639 _246_
*640 _247_
*641 _248_
*642 _249_
*643 _250_
*644 _251_
*645 _252_
*646 _253_
*647 _254_
*648 _255_
*649 _256_
*650 _257_
*651 _258_
*652 _259_
*653 _260_
*654 _261_
*655 _262_
*656 _263_
*657 _264_
*658 _265_
*659 _266_
*660 _267_
*661 _268_
*662 _269_
*663 _270_
*664 _271_
*665 _272_
*666 _273_
*667 _274_
*668 _275_
*669 _276_
*670 _277_
*671 _278_
*672 _279_
*673 _280_
*674 _281_
*675 _282_
*676 _283_
*677 _284_
*678 _285_
*679 _286_
*680 _287_
*681 _288_
*682 _289_
*683 _290_
*684 _291_
*685 _292_
*686 _293_
*687 _294_
*688 _295_
*689 _296_
*690 _297_
*691 _298_
*692 _299_
*693 _300_
*694 _301_
*695 _302_
*696 _303_
*697 _304_
*698 _305_
*699 _306_
*700 _307_
*701 _308_
*702 _309_
*703 _310_
*704 _311_
*705 _312_
*706 _313_
*707 _314_
*708 _315_
*709 _316_
*710 _317_
*711 _318_
*712 _319_
*713 _320_
*714 _321_
*715 _322_
*716 _323_
*717 _324_
*718 _325_
*719 _326_
*720 _327_
*721 _328_
*722 _329_
*723 _330_
*724 _331_
*725 _332_
*726 _333_
*727 _334_
*728 _335_
*729 _336_
*730 _337_
*731 _338_
*732 _339_
*733 _340_
*734 _341_
*735 _342_
*736 _343_
*737 _344_
*738 _345_
*739 _346_
*740 _347_
*741 _348_
*742 _349_
*743 _350_
*744 _351_
*745 _352_
*746 _353_
*747 _354_
*748 _355_
*749 _356_
*750 _357_
*751 _358_
*752 _359_
*753 _360_
*754 _361_
*755 _362_
*756 _363_
*757 _364_
*758 _365_
*759 _366_
*760 _367_
*761 _368_
*762 _369_
*763 _370_
*764 _371_
*765 _372_
*766 _373_
*767 _374_
*768 _375_
*769 _376_
*770 _377_
*771 _378_
*772 _379_
*773 _380_
*774 _381_
*775 _382_
*776 _383_
*777 _384_
*778 _385_
*779 _386_
*780 _387_
*781 _388_
*782 _389_
*783 _390_
*784 _391_
*785 _392_
*786 _393_
*787 _394_
*788 _395_
*789 _396_
*790 _397_
*791 _398_
*792 _399_
*793 _400_
*794 _401_
*795 _402_
*796 _403_
*797 _404_
*798 _405_
*799 _406_
*800 _407_
*801 _408_
*802 _409_
*803 _410_
*804 _411_
*805 _412_
*806 _413_
*807 _414_
*808 _415_
*809 _416_
*810 _417_
*811 _418_
*812 _419_
*813 _420_
*814 _421_
*815 _422_
*816 _423_
*817 _424_
*818 _425_
*819 _426_
*820 _427_
*821 _428_
*822 _429_
*823 _430_
*824 _431_
*825 _432_
*826 _433_
*827 _434_
*828 _435_
*829 _436_
*830 _437_
*831 _438_
*832 _439_
*833 _440_
*834 _441_
*835 _442_
*836 _443_
*837 _444_
*838 _445_
*839 _446_
*840 _447_
*841 _448_
*842 _449_
*843 _450_
*844 _451_
*845 _452_
*846 _453_
*847 _454_
*848 _455_
*849 _456_
*850 _457_
*851 _458_
*852 _459_
*853 _460_
*854 _461_
*855 _462_
*856 _463_
*857 _464_
*858 _465_
*859 _466_
*860 _467_
*861 _468_
*862 _469_
*863 _470_
*864 _471_
*865 _472_
*866 _473_
*867 _474_
*868 _475_
*869 _476_
*870 _477_
*871 _478_
*872 _479_
*873 comb_logic\[0\]\.delay1_I
*874 comb_logic\[0\]\.nand_on_I
*875 comb_logic\[0\]\.nand_on_n_I
*876 comb_logic\[0\]\.xor_pulse_I
*877 comb_logic\[10\]\.delay1_I
*878 comb_logic\[10\]\.nand_on_I
*879 comb_logic\[10\]\.nand_on_n_I
*880 comb_logic\[10\]\.xor_pulse_I
*881 comb_logic\[11\]\.delay1_I
*882 comb_logic\[11\]\.nand_on_I
*883 comb_logic\[11\]\.nand_on_n_I
*884 comb_logic\[11\]\.xor_pulse_I
*885 comb_logic\[12\]\.delay1_I
*886 comb_logic\[12\]\.nand_on_I
*887 comb_logic\[12\]\.nand_on_n_I
*888 comb_logic\[12\]\.xor_pulse_I
*889 comb_logic\[13\]\.delay1_I
*890 comb_logic\[13\]\.nand_on_I
*891 comb_logic\[13\]\.nand_on_n_I
*892 comb_logic\[13\]\.xor_pulse_I
*893 comb_logic\[14\]\.delay1_I
*894 comb_logic\[14\]\.nand_on_I
*895 comb_logic\[14\]\.nand_on_n_I
*896 comb_logic\[14\]\.xor_pulse_I
*897 comb_logic\[15\]\.delay1_I
*898 comb_logic\[15\]\.nand_on_I
*899 comb_logic\[15\]\.nand_on_n_I
*900 comb_logic\[15\]\.xor_pulse_I
*901 comb_logic\[16\]\.delay1_I
*902 comb_logic\[16\]\.nand_on_I
*903 comb_logic\[16\]\.nand_on_n_I
*904 comb_logic\[16\]\.xor_pulse_I
*905 comb_logic\[17\]\.delay1_I
*906 comb_logic\[17\]\.nand_on_I
*907 comb_logic\[17\]\.nand_on_n_I
*908 comb_logic\[17\]\.xor_pulse_I
*909 comb_logic\[18\]\.delay1_I
*910 comb_logic\[18\]\.nand_on_I
*911 comb_logic\[18\]\.nand_on_n_I
*912 comb_logic\[18\]\.xor_pulse_I
*913 comb_logic\[19\]\.delay1_I
*914 comb_logic\[19\]\.nand_on_I
*915 comb_logic\[19\]\.nand_on_n_I
*916 comb_logic\[19\]\.xor_pulse_I
*917 comb_logic\[1\]\.delay1_I
*918 comb_logic\[1\]\.nand_on_I
*919 comb_logic\[1\]\.nand_on_n_I
*920 comb_logic\[1\]\.xor_pulse_I
*921 comb_logic\[20\]\.delay1_I
*922 comb_logic\[20\]\.nand_on_I
*923 comb_logic\[20\]\.nand_on_n_I
*924 comb_logic\[20\]\.xor_pulse_I
*925 comb_logic\[21\]\.delay1_I
*926 comb_logic\[21\]\.nand_on_I
*927 comb_logic\[21\]\.nand_on_n_I
*928 comb_logic\[21\]\.xor_pulse_I
*929 comb_logic\[22\]\.delay1_I
*930 comb_logic\[22\]\.nand_on_I
*931 comb_logic\[22\]\.nand_on_n_I
*932 comb_logic\[22\]\.xor_pulse_I
*933 comb_logic\[23\]\.delay1_I
*934 comb_logic\[23\]\.nand_on_I
*935 comb_logic\[23\]\.nand_on_n_I
*936 comb_logic\[23\]\.xor_pulse_I
*937 comb_logic\[24\]\.delay1_I
*938 comb_logic\[24\]\.nand_on_I
*939 comb_logic\[24\]\.nand_on_n_I
*940 comb_logic\[24\]\.xor_pulse_I
*941 comb_logic\[25\]\.delay1_I
*942 comb_logic\[25\]\.nand_on_I
*943 comb_logic\[25\]\.nand_on_n_I
*944 comb_logic\[25\]\.xor_pulse_I
*945 comb_logic\[26\]\.delay1_I
*946 comb_logic\[26\]\.nand_on_I
*947 comb_logic\[26\]\.nand_on_n_I
*948 comb_logic\[26\]\.xor_pulse_I
*949 comb_logic\[27\]\.delay1_I
*950 comb_logic\[27\]\.nand_on_I
*951 comb_logic\[27\]\.nand_on_n_I
*952 comb_logic\[27\]\.xor_pulse_I
*953 comb_logic\[28\]\.delay1_I
*954 comb_logic\[28\]\.nand_on_I
*955 comb_logic\[28\]\.nand_on_n_I
*956 comb_logic\[28\]\.xor_pulse_I
*957 comb_logic\[29\]\.delay1_I
*958 comb_logic\[29\]\.nand_on_I
*959 comb_logic\[29\]\.nand_on_n_I
*960 comb_logic\[29\]\.xor_pulse_I
*961 comb_logic\[2\]\.delay1_I
*962 comb_logic\[2\]\.nand_on_I
*963 comb_logic\[2\]\.nand_on_n_I
*964 comb_logic\[2\]\.xor_pulse_I
*965 comb_logic\[30\]\.delay1_I
*966 comb_logic\[30\]\.nand_on_I
*967 comb_logic\[30\]\.nand_on_n_I
*968 comb_logic\[30\]\.xor_pulse_I
*969 comb_logic\[31\]\.delay1_I
*970 comb_logic\[31\]\.nand_on_I
*971 comb_logic\[31\]\.nand_on_n_I
*972 comb_logic\[31\]\.xor_pulse_I
*973 comb_logic\[3\]\.delay1_I
*974 comb_logic\[3\]\.nand_on_I
*975 comb_logic\[3\]\.nand_on_n_I
*976 comb_logic\[3\]\.xor_pulse_I
*977 comb_logic\[4\]\.delay1_I
*978 comb_logic\[4\]\.nand_on_I
*979 comb_logic\[4\]\.nand_on_n_I
*980 comb_logic\[4\]\.xor_pulse_I
*981 comb_logic\[5\]\.delay1_I
*982 comb_logic\[5\]\.nand_on_I
*983 comb_logic\[5\]\.nand_on_n_I
*984 comb_logic\[5\]\.xor_pulse_I
*985 comb_logic\[6\]\.delay1_I
*986 comb_logic\[6\]\.nand_on_I
*987 comb_logic\[6\]\.nand_on_n_I
*988 comb_logic\[6\]\.xor_pulse_I
*989 comb_logic\[7\]\.delay1_I
*990 comb_logic\[7\]\.nand_on_I
*991 comb_logic\[7\]\.nand_on_n_I
*992 comb_logic\[7\]\.xor_pulse_I
*993 comb_logic\[8\]\.delay1_I
*994 comb_logic\[8\]\.nand_on_I
*995 comb_logic\[8\]\.nand_on_n_I
*996 comb_logic\[8\]\.xor_pulse_I
*997 comb_logic\[9\]\.delay1_I
*998 comb_logic\[9\]\.nand_on_I
*999 comb_logic\[9\]\.nand_on_n_I
*1000 comb_logic\[9\]\.xor_pulse_I

*PORTS
ON[0] O
ON[10] O
ON[11] O
ON[12] O
ON[13] O
ON[14] O
ON[15] O
ON[16] O
ON[17] O
ON[18] O
ON[19] O
ON[1] O
ON[20] O
ON[21] O
ON[22] O
ON[23] O
ON[24] O
ON[25] O
ON[26] O
ON[27] O
ON[28] O
ON[29] O
ON[2] O
ON[30] O
ON[31] O
ON[3] O
ON[4] O
ON[5] O
ON[6] O
ON[7] O
ON[8] O
ON[9] O
ON_N[0] O
ON_N[10] O
ON_N[11] O
ON_N[12] O
ON_N[13] O
ON_N[14] O
ON_N[15] O
ON_N[16] O
ON_N[17] O
ON_N[18] O
ON_N[19] O
ON_N[1] O
ON_N[20] O
ON_N[21] O
ON_N[22] O
ON_N[23] O
ON_N[24] O
ON_N[25] O
ON_N[26] O
ON_N[27] O
ON_N[28] O
ON_N[29] O
ON_N[2] O
ON_N[30] O
ON_N[31] O
ON_N[3] O
ON_N[4] O
ON_N[5] O
ON_N[6] O
ON_N[7] O
ON_N[8] O
ON_N[9] O
thermo[0] I
thermo[10] I
thermo[11] I
thermo[12] I
thermo[13] I
thermo[14] I
thermo[15] I
thermo[16] I
thermo[17] I
thermo[18] I
thermo[19] I
thermo[1] I
thermo[20] I
thermo[21] I
thermo[22] I
thermo[23] I
thermo[24] I
thermo[25] I
thermo[26] I
thermo[27] I
thermo[28] I
thermo[29] I
thermo[2] I
thermo[30] I
thermo[31] I
thermo[3] I
thermo[4] I
thermo[5] I
thermo[6] I
thermo[7] I
thermo[8] I
thermo[9] I

*D_NET *1 0.00077435
*CONN
*P ON[0] O
*I *777:L_LO O *D sg13g2_tielo
*CAP
1 ON[0] 0.000387175
2 *777:L_LO 0.000387175
3 ON[0] ON[1] 0
4 ON[0] ON_N[0] 0
*RES
1 *777:L_LO ON[0] 43.9243 
*END

*D_NET *2 0.00131485
*CONN
*P ON[10] O
*I *787:L_LO O *D sg13g2_tielo
*CAP
1 ON[10] 0.000649697
2 *787:L_LO 0.000649697
3 ON[10] ON[8] 0
4 ON[10] ON_N[10] 1.54556e-05
5 ON[10] ON_N[9] 0
*RES
1 *787:L_LO ON[10] 45.5929 
*END

*D_NET *3 0.00113162
*CONN
*P ON[11] O
*I *788:L_LO O *D sg13g2_tielo
*CAP
1 ON[11] 0.000565809
2 *788:L_LO 0.000565809
3 ON[11] ON_N[10] 0
4 ON[11] ON_N[11] 0
5 ON[11] ON_N[12] 0
*RES
1 *788:L_LO ON[11] 44.6041 
*END

*D_NET *4 0.000644298
*CONN
*P ON[12] O
*I *789:L_LO O *D sg13g2_tielo
*CAP
1 ON[12] 0.000322149
2 *789:L_LO 0.000322149
3 ON[12] ON[13] 0
4 ON[12] ON_N[11] 0
5 ON[12] ON_N[12] 0
*RES
1 *789:L_LO ON[12] 42.6265 
*END

*D_NET *5 0.00105152
*CONN
*P ON[13] O
*I *790:L_LO O *D sg13g2_tielo
*CAP
1 ON[13] 0.000518031
2 *790:L_LO 0.000518031
3 ON[13] ON[14] 0
4 ON[13] ON_N[11] 1.54556e-05
5 ON[13] ON_N[12] 0
6 ON[13] ON_N[13] 0
7 ON[12] ON[13] 0
*RES
1 *790:L_LO ON[13] 44.4805 
*END

*D_NET *6 0.0012728
*CONN
*P ON[14] O
*I *791:L_LO O *D sg13g2_tielo
*CAP
1 ON[14] 0.000518281
2 *791:L_LO 0.000518281
3 ON[14] ON_N[12] 0
4 ON[14] ON_N[13] 0.00023624
5 ON[14] ON_N[14] 0
6 ON[14] ON_N[15] 0
7 ON[13] ON[14] 0
*RES
1 *791:L_LO ON[14] 45.7783 
*END

*D_NET *7 0.000788325
*CONN
*P ON[15] O
*I *792:L_LO O *D sg13g2_tielo
*CAP
1 ON[15] 0.000386434
2 *792:L_LO 0.000386434
3 ON[15] ON_N[13] 1.54556e-05
4 ON[15] ON_N[14] 0
5 ON[15] ON_N[15] 0
*RES
1 *792:L_LO ON[15] 43.1621 
*END

*D_NET *8 0.00139109
*CONN
*P ON[16] O
*I *793:L_LO O *D sg13g2_tielo
*CAP
1 ON[16] 0.000695545
2 *793:L_LO 0.000695545
3 ON[16] ON_N[15] 0
4 ON[16] ON_N[16] 0
*RES
1 *793:L_LO ON[16] 45.5517 
*END

*D_NET *9 0.00171107
*CONN
*P ON[17] O
*I *794:L_LO O *D sg13g2_tielo
*CAP
1 ON[17] 0.000718711
2 *794:L_LO 0.000718711
3 ON[17] ON[18] 0
4 ON[17] ON[19] 0.000273651
5 ON[17] ON_N[16] 0
6 ON[17] ON_N[17] 0
7 ON[17] ON_N[19] 0
*RES
1 *794:L_LO ON[17] 46.3139 
*END

*D_NET *10 0.00117835
*CONN
*P ON[18] O
*I *795:L_LO O *D sg13g2_tielo
*CAP
1 ON[18] 0.000516832
2 *795:L_LO 0.000516832
3 ON[18] ON[19] 0.000144684
4 ON[18] ON_N[16] 0
5 ON[18] ON_N[17] 0
6 ON[18] ON_N[18] 0
7 ON[17] ON[18] 0
*RES
1 *795:L_LO ON[18] 44.4805 
*END

*D_NET *11 0.00167436
*CONN
*P ON[19] O
*I *796:L_LO O *D sg13g2_tielo
*CAP
1 ON[19] 0.000628014
2 *796:L_LO 0.000628014
3 ON[19] ON_N[18] 0
4 ON[19] ON_N[19] 0
5 ON[17] ON[19] 0.000273651
6 ON[18] ON[19] 0.000144684
*RES
1 *796:L_LO ON[19] 45.8813 
*END

*D_NET *12 0.00128919
*CONN
*P ON[1] O
*I *778:L_LO O *D sg13g2_tielo
*CAP
1 ON[1] 0.000644596
2 *778:L_LO 0.000644596
3 ON[1] ON_N[0] 0
4 ON[1] ON_N[1] 0
5 ON[0] ON[1] 0
*RES
1 *778:L_LO ON[1] 45.7783 
*END

*D_NET *13 0.00112033
*CONN
*P ON[20] O
*I *797:L_LO O *D sg13g2_tielo
*CAP
1 ON[20] 0.000560165
2 *797:L_LO 0.000560165
3 ON[20] ON_N[18] 0
4 ON[20] ON_N[19] 0
5 ON[20] ON_N[20] 0
*RES
1 *797:L_LO ON[20] 44.6041 
*END

*D_NET *14 0.00154067
*CONN
*P ON[21] O
*I *798:L_LO O *D sg13g2_tielo
*CAP
1 ON[21] 0.000762608
2 *798:L_LO 0.000762608
3 ON[21] ON[23] 0
4 ON[21] ON[24] 1.54556e-05
5 ON[21] ON_N[20] 0
6 ON[21] ON_N[21] 0
*RES
1 *798:L_LO ON[21] 46.0279 
*END

*D_NET *15 0.000954768
*CONN
*P ON[22] O
*I *799:L_LO O *D sg13g2_tielo
*CAP
1 ON[22] 0.000477384
2 *799:L_LO 0.000477384
3 ON[22] ON_N[21] 0
4 ON[22] ON_N[22] 0
*RES
1 *799:L_LO ON[22] 43.9243 
*END

*D_NET *16 0.00140605
*CONN
*P ON[23] O
*I *800:L_LO O *D sg13g2_tielo
*CAP
1 ON[23] 0.000703027
2 *800:L_LO 0.000703027
3 ON[23] ON_N[20] 0
4 ON[23] ON_N[22] 0
5 ON[23] ON_N[23] 0
6 ON[21] ON[23] 0
*RES
1 *800:L_LO ON[23] 45.5679 
*END

*D_NET *17 0.00129468
*CONN
*P ON[24] O
*I *801:L_LO O *D sg13g2_tielo
*CAP
1 ON[24] 0.000639612
2 *801:L_LO 0.000639612
3 ON[24] ON_N[22] 0
4 ON[24] ON_N[23] 0
5 ON[24] ON_N[24] 0
6 ON[21] ON[24] 1.54556e-05
*RES
1 *801:L_LO ON[24] 45.1397 
*END

*D_NET *18 0.000534535
*CONN
*P ON[25] O
*I *802:L_LO O *D sg13g2_tielo
*CAP
1 ON[25] 0.000267267
2 *802:L_LO 0.000267267
3 ON[25] ON_N[24] 0
4 ON[25] ON_N[25] 0
*RES
1 *802:L_LO ON[25] 42.0909 
*END

*D_NET *19 0.00119556
*CONN
*P ON[26] O
*I *803:L_LO O *D sg13g2_tielo
*CAP
1 ON[26] 0.00059778
2 *803:L_LO 0.00059778
3 ON[26] ON[27] 0
4 ON[26] ON_N[25] 0
5 ON[26] ON_N[26] 0
6 ON[26] ON_N[28] 0
*RES
1 *803:L_LO ON[26] 44.8513 
*END

*D_NET *20 0.00139641
*CONN
*P ON[27] O
*I *804:L_LO O *D sg13g2_tielo
*CAP
1 ON[27] 0.000658186
2 *804:L_LO 0.000658186
3 ON[27] ON[28] 0
4 ON[27] ON[29] 8.00425e-05
5 ON[27] ON_N[25] 0
6 ON[27] ON_N[26] 0
7 ON[27] ON_N[27] 0
8 ON[27] ON_N[28] 0
9 ON[26] ON[27] 0
*RES
1 *804:L_LO ON[27] 45.3457 
*END

*D_NET *21 0.00129619
*CONN
*P ON[28] O
*I *805:L_LO O *D sg13g2_tielo
*CAP
1 ON[28] 0.000648096
2 *805:L_LO 0.000648096
3 ON[28] ON[29] 0
4 ON[28] ON_N[25] 0
5 ON[28] ON_N[26] 0
6 ON[28] ON_N[27] 0
7 ON[28] ON_N[28] 0
8 ON[28] ON_N[31] 0
9 ON[27] ON[28] 0
*RES
1 *805:L_LO ON[28] 45.4693 
*END

*D_NET *22 0.00158231
*CONN
*P ON[29] O
*I *806:L_LO O *D sg13g2_tielo
*CAP
1 ON[29] 0.000751136
2 *806:L_LO 0.000751136
3 ON[29] ON[30] 0
4 ON[29] ON_N[28] 0
5 ON[29] ON_N[29] 0
6 ON[29] ON_N[30] 0
7 ON[27] ON[29] 8.00425e-05
8 ON[28] ON[29] 0
*RES
1 *806:L_LO ON[29] 46.7465 
*END

*D_NET *23 0.000666286
*CONN
*P ON[2] O
*I *779:L_LO O *D sg13g2_tielo
*CAP
1 ON[2] 0.000333143
2 *779:L_LO 0.000333143
3 ON[2] ON[3] 0
4 ON[2] ON_N[1] 0
5 ON[2] ON_N[2] 0
*RES
1 *779:L_LO ON[2] 42.6265 
*END

*D_NET *24 0.00110762
*CONN
*P ON[30] O
*I *807:L_LO O *D sg13g2_tielo
*CAP
1 ON[30] 0.00055381
2 *807:L_LO 0.00055381
3 ON[30] ON_N[29] 0
4 ON[30] ON_N[30] 0
5 ON[29] ON[30] 0
*RES
1 *807:L_LO ON[30] 44.7895 
*END

*D_NET *25 0.00162912
*CONN
*P ON[31] O
*I *808:L_LO O *D sg13g2_tielo
*CAP
1 ON[31] 0.000814559
2 *808:L_LO 0.000814559
3 ON[31] ON_N[29] 0
4 ON[31] ON_N[30] 0
5 ON[31] ON_N[31] 0
*RES
1 *808:L_LO ON[31] 46.4331 
*END

*D_NET *26 0.00111956
*CONN
*P ON[3] O
*I *780:L_LO O *D sg13g2_tielo
*CAP
1 ON[3] 0.000559779
2 *780:L_LO 0.000559779
3 ON[3] ON[5] 0
4 ON[3] ON_N[0] 0
5 ON[3] ON_N[2] 0
6 ON[3] ON_N[3] 0
7 ON[2] ON[3] 0
*RES
1 *780:L_LO ON[3] 44.4805 
*END

*D_NET *27 0.00168412
*CONN
*P ON[4] O
*I *781:L_LO O *D sg13g2_tielo
*CAP
1 ON[4] 0.00084206
2 *781:L_LO 0.00084206
3 ON[4] ON[5] 0
4 ON[4] ON_N[2] 0
5 ON[4] ON_N[3] 0
6 ON[4] ON_N[4] 0
7 ON[4] ON_N[5] 0
8 ON[4] *918:A 0
*RES
1 *781:L_LO ON[4] 47.8795 
*END

*D_NET *28 0.00137573
*CONN
*P ON[5] O
*I *782:L_LO O *D sg13g2_tielo
*CAP
1 ON[5] 0.000687864
2 *782:L_LO 0.000687864
3 ON[5] ON_N[3] 0
4 ON[5] ON_N[4] 0
5 ON[5] ON_N[5] 0
6 ON[3] ON[5] 0
7 ON[4] ON[5] 0
*RES
1 *782:L_LO ON[5] 45.4705 
*END

*D_NET *29 0.00106653
*CONN
*P ON[6] O
*I *783:L_LO O *D sg13g2_tielo
*CAP
1 ON[6] 0.000533264
2 *783:L_LO 0.000533264
3 ON[6] ON_N[5] 0
4 ON[6] ON_N[6] 0
*RES
1 *783:L_LO ON[6] 44.0685 
*END

*D_NET *30 0.00078822
*CONN
*P ON[7] O
*I *784:L_LO O *D sg13g2_tielo
*CAP
1 ON[7] 0.000386382
2 *784:L_LO 0.000386382
3 ON[7] ON_N[6] 0
4 ON[7] ON_N[7] 0
5 ON[7] ON_N[8] 1.54556e-05
*RES
1 *784:L_LO ON[7] 43.1621 
*END

*D_NET *31 0.00109929
*CONN
*P ON[8] O
*I *785:L_LO O *D sg13g2_tielo
*CAP
1 ON[8] 0.000549646
2 *785:L_LO 0.000549646
3 ON[8] ON[9] 0
4 ON[8] ON_N[6] 0
5 ON[8] ON_N[7] 0
6 ON[8] ON_N[8] 0
7 ON[10] ON[8] 0
*RES
1 *785:L_LO ON[8] 44.9487 
*END

*D_NET *32 0.00118319
*CONN
*P ON[9] O
*I *786:L_LO O *D sg13g2_tielo
*CAP
1 ON[9] 0.00055141
2 *786:L_LO 0.00055141
3 ON[9] ON_N[7] 8.03692e-05
4 ON[9] ON_N[8] 0
5 ON[9] ON_N[9] 0
6 ON[8] ON[9] 0
*RES
1 *786:L_LO ON[9] 44.5435 
*END

*D_NET *33 0.00124399
*CONN
*P ON_N[0] O
*I *809:L_LO O *D sg13g2_tielo
*CAP
1 ON_N[0] 0.000621995
2 *809:L_LO 0.000621995
3 ON_N[0] ON_N[1] 0
4 ON_N[0] ON_N[2] 0
5 ON[0] ON_N[0] 0
6 ON[1] ON_N[0] 0
7 ON[3] ON_N[0] 0
*RES
1 *809:L_LO ON_N[0] 46.0255 
*END

*D_NET *34 0.00149419
*CONN
*P ON_N[10] O
*I *819:L_LO O *D sg13g2_tielo
*CAP
1 ON_N[10] 0.000739366
2 *819:L_LO 0.000739366
3 ON_N[10] ON_N[11] 0
4 ON_N[10] ON_N[12] 0
5 ON[10] ON_N[10] 1.54556e-05
6 ON[11] ON_N[10] 0
*RES
1 *819:L_LO ON_N[10] 46.1285 
*END

*D_NET *35 0.00101116
*CONN
*P ON_N[11] O
*I *820:L_LO O *D sg13g2_tielo
*CAP
1 ON_N[11] 0.000497852
2 *820:L_LO 0.000497852
3 ON_N[11] ON_N[12] 0
4 ON[11] ON_N[11] 0
5 ON[12] ON_N[11] 0
6 ON[13] ON_N[11] 1.54556e-05
7 ON_N[10] ON_N[11] 0
*RES
1 *820:L_LO ON_N[11] 44.1509 
*END

*D_NET *36 0.0011079
*CONN
*P ON_N[12] O
*I *821:L_LO O *D sg13g2_tielo
*CAP
1 ON_N[12] 0.000553952
2 *821:L_LO 0.000553952
3 ON[11] ON_N[12] 0
4 ON[12] ON_N[12] 0
5 ON[13] ON_N[12] 0
6 ON[14] ON_N[12] 0
7 ON_N[10] ON_N[12] 0
8 ON_N[11] ON_N[12] 0
*RES
1 *821:L_LO ON_N[12] 45.0367 
*END

*D_NET *37 0.000963151
*CONN
*P ON_N[13] O
*I *822:L_LO O *D sg13g2_tielo
*CAP
1 ON_N[13] 0.000355727
2 *822:L_LO 0.000355727
3 ON_N[13] ON_N[14] 0
4 ON[13] ON_N[13] 0
5 ON[14] ON_N[13] 0.00023624
6 ON[15] ON_N[13] 1.54556e-05
*RES
1 *822:L_LO ON_N[13] 43.4917 
*END

*D_NET *38 0.000793435
*CONN
*P ON_N[14] O
*I *823:L_LO O *D sg13g2_tielo
*CAP
1 ON_N[14] 0.000396717
2 *823:L_LO 0.000396717
3 ON_N[14] ON_N[15] 0
4 ON[14] ON_N[14] 0
5 ON[15] ON_N[14] 0
6 ON_N[13] ON_N[14] 0
*RES
1 *823:L_LO ON_N[14] 43.6153 
*END

*D_NET *39 0.00152295
*CONN
*P ON_N[15] O
*I *824:L_LO O *D sg13g2_tielo
*CAP
1 ON_N[15] 0.000761474
2 *824:L_LO 0.000761474
3 ON[14] ON_N[15] 0
4 ON[15] ON_N[15] 0
5 ON[16] ON_N[15] 0
6 ON_N[14] ON_N[15] 0
*RES
1 *824:L_LO ON_N[15] 46.8289 
*END

*D_NET *40 0.00118803
*CONN
*P ON_N[16] O
*I *825:L_LO O *D sg13g2_tielo
*CAP
1 ON_N[16] 0.000594013
2 *825:L_LO 0.000594013
3 ON_N[16] ON_N[18] 0
4 ON_N[16] *184:10 0
5 ON[16] ON_N[16] 0
6 ON[17] ON_N[16] 0
7 ON[18] ON_N[16] 0
*RES
1 *825:L_LO ON_N[16] 45.0985 
*END

*D_NET *41 0.000998945
*CONN
*P ON_N[17] O
*I *826:L_LO O *D sg13g2_tielo
*CAP
1 ON_N[17] 0.000491744
2 *826:L_LO 0.000491744
3 ON_N[17] ON_N[19] 1.54556e-05
4 ON[17] ON_N[17] 0
5 ON[18] ON_N[17] 0
*RES
1 *826:L_LO ON_N[17] 43.9243 
*END

*D_NET *42 0.00113002
*CONN
*P ON_N[18] O
*I *827:L_LO O *D sg13g2_tielo
*CAP
1 ON_N[18] 0.000565008
2 *827:L_LO 0.000565008
3 ON[18] ON_N[18] 0
4 ON[19] ON_N[18] 0
5 ON[20] ON_N[18] 0
6 ON_N[16] ON_N[18] 0
*RES
1 *827:L_LO ON_N[18] 45.0367 
*END

*D_NET *43 0.000784268
*CONN
*P ON_N[19] O
*I *828:L_LO O *D sg13g2_tielo
*CAP
1 ON_N[19] 0.000384406
2 *828:L_LO 0.000384406
3 ON[17] ON_N[19] 0
4 ON[19] ON_N[19] 0
5 ON[20] ON_N[19] 0
6 ON_N[17] ON_N[19] 1.54556e-05
*RES
1 *828:L_LO ON_N[19] 43.1621 
*END

*D_NET *44 0.000938989
*CONN
*P ON_N[1] O
*I *810:L_LO O *D sg13g2_tielo
*CAP
1 ON_N[1] 0.000469495
2 *810:L_LO 0.000469495
3 ON_N[1] ON_N[2] 0
4 ON[1] ON_N[1] 0
5 ON[2] ON_N[1] 0
6 ON_N[0] ON_N[1] 0
*RES
1 *810:L_LO ON_N[1] 44.0685 
*END

*D_NET *45 0.00121819
*CONN
*P ON_N[20] O
*I *829:L_LO O *D sg13g2_tielo
*CAP
1 ON_N[20] 0.000609096
2 *829:L_LO 0.000609096
3 ON[20] ON_N[20] 0
4 ON[21] ON_N[20] 0
5 ON[23] ON_N[20] 0
*RES
1 *829:L_LO ON_N[20] 45.0573 
*END

*D_NET *46 0.00138498
*CONN
*P ON_N[21] O
*I *830:L_LO O *D sg13g2_tielo
*CAP
1 ON_N[21] 0.000587713
2 *830:L_LO 0.000587713
3 ON_N[21] ON_N[22] 0.000209558
4 ON[21] ON_N[21] 0
5 ON[22] ON_N[21] 0
*RES
1 *830:L_LO ON_N[21] 45.3457 
*END

*D_NET *47 0.00144516
*CONN
*P ON_N[22] O
*I *831:L_LO O *D sg13g2_tielo
*CAP
1 ON_N[22] 0.000617799
2 *831:L_LO 0.000617799
3 ON[22] ON_N[22] 0
4 ON[23] ON_N[22] 0
5 ON[24] ON_N[22] 0
6 ON_N[21] ON_N[22] 0.000209558
*RES
1 *831:L_LO ON_N[22] 45.4487 
*END

*D_NET *48 0.00154746
*CONN
*P ON_N[23] O
*I *832:L_LO O *D sg13g2_tielo
*CAP
1 ON_N[23] 0.000773732
2 *832:L_LO 0.000773732