*SPEF "ieee 1481-1999"
*DESIGN "heichips25_pudding"
*DATE "03:14:18 Monday February 09, 2026"
*VENDOR "The OpenROAD Project"
*PROGRAM "OpenROAD"
*VERSION "dfc4f595dfb2e1c346492ff1f0274abb28725acf"
*DESIGN_FLOW "NAME_SCOPE LOCAL" "PIN_CAP NONE"
*DIVIDER /
*DELIMITER :
*BUS_DELIMITER []
*T_UNIT 1 NS
*C_UNIT 1 PF
*R_UNIT 1 OHM
*L_UNIT 1 HENRY

*NAME_MAP
*3 clk
*4 ena
*5 rst_n
*6 ui_in[0]
*7 ui_in[1]
*8 ui_in[2]
*9 ui_in[3]
*10 ui_in[4]
*11 ui_in[5]
*12 ui_in[6]
*13 ui_in[7]
*14 uio_in[0]
*15 uio_in[1]
*16 uio_in[2]
*17 uio_in[3]
*18 uio_in[4]
*19 uio_in[5]
*20 uio_in[6]
*21 uio_in[7]
*22 net
*23 net116
*24 net117
*25 net118
*26 net119
*27 net120
*28 net121
*29 net122
*30 uio_out[0]
*31 uio_out[1]
*32 uio_out[2]
*33 uio_out[3]
*34 uio_out[4]
*35 uio_out[5]
*36 uio_out[6]
*37 uio_out[7]
*38 uo_out[0]
*39 uo_out[1]
*40 uo_out[2]
*41 uo_out[3]
*42 uo_out[4]
*43 uo_out[5]
*44 uo_out[6]
*45 uo_out[7]
*46 digitalH\.g\[0\]\.u\.OUTN
*47 digitalH\.g\[0\]\.u\.OUTP
*48 digitalH\.g\[100\]\.u\.OUTN
*49 digitalH\.g\[100\]\.u\.OUTP
*50 digitalH\.g\[101\]\.u\.OUTN
*51 digitalH\.g\[101\]\.u\.OUTP
*52 digitalH\.g\[102\]\.u\.OUTN
*53 digitalH\.g\[102\]\.u\.OUTP
*54 digitalH\.g\[103\]\.u\.OUTN
*55 digitalH\.g\[103\]\.u\.OUTP
*56 digitalH\.g\[104\]\.u\.OUTN
*57 digitalH\.g\[104\]\.u\.OUTP
*58 digitalH\.g\[105\]\.u\.OUTN
*59 digitalH\.g\[105\]\.u\.OUTP
*60 digitalH\.g\[106\]\.u\.OUTN
*61 digitalH\.g\[106\]\.u\.OUTP
*62 digitalH\.g\[107\]\.u\.OUTN
*63 digitalH\.g\[107\]\.u\.OUTP
*64 digitalH\.g\[108\]\.u\.OUTN
*65 digitalH\.g\[108\]\.u\.OUTP
*66 digitalH\.g\[109\]\.u\.OUTN
*67 digitalH\.g\[109\]\.u\.OUTP
*68 digitalH\.g\[10\]\.u\.OUTN
*69 digitalH\.g\[10\]\.u\.OUTP
*70 digitalH\.g\[110\]\.u\.OUTN
*71 digitalH\.g\[110\]\.u\.OUTP
*72 digitalH\.g\[111\]\.u\.OUTN
*73 digitalH\.g\[111\]\.u\.OUTP
*74 digitalH\.g\[112\]\.u\.OUTN
*75 digitalH\.g\[112\]\.u\.OUTP
*76 digitalH\.g\[113\]\.u\.OUTN
*77 digitalH\.g\[113\]\.u\.OUTP
*78 digitalH\.g\[114\]\.u\.OUTN
*79 digitalH\.g\[114\]\.u\.OUTP
*80 digitalH\.g\[115\]\.u\.OUTN
*81 digitalH\.g\[115\]\.u\.OUTP
*82 digitalH\.g\[116\]\.u\.OUTN
*83 digitalH\.g\[116\]\.u\.OUTP
*84 digitalH\.g\[117\]\.u\.OUTN
*85 digitalH\.g\[117\]\.u\.OUTP
*86 digitalH\.g\[118\]\.u\.OUTN
*87 digitalH\.g\[118\]\.u\.OUTP
*88 digitalH\.g\[119\]\.u\.OUTN
*89 digitalH\.g\[119\]\.u\.OUTP
*90 digitalH\.g\[11\]\.u\.OUTN
*91 digitalH\.g\[11\]\.u\.OUTP
*92 digitalH\.g\[120\]\.u\.OUTN
*93 digitalH\.g\[120\]\.u\.OUTP
*94 digitalH\.g\[121\]\.u\.OUTN
*95 digitalH\.g\[121\]\.u\.OUTP
*96 digitalH\.g\[122\]\.u\.OUTN
*97 digitalH\.g\[122\]\.u\.OUTP
*98 digitalH\.g\[123\]\.u\.OUTN
*99 digitalH\.g\[123\]\.u\.OUTP
*100 digitalH\.g\[124\]\.u\.OUTN
*101 digitalH\.g\[124\]\.u\.OUTP
*102 digitalH\.g\[125\]\.u\.OUTN
*103 digitalH\.g\[125\]\.u\.OUTP
*104 digitalH\.g\[126\]\.u\.OUTN
*105 digitalH\.g\[126\]\.u\.OUTP
*106 digitalH\.g\[127\]\.u\.OUTN
*107 digitalH\.g\[127\]\.u\.OUTP
*108 digitalH\.g\[12\]\.u\.OUTN
*109 digitalH\.g\[12\]\.u\.OUTP
*110 digitalH\.g\[13\]\.u\.OUTN
*111 digitalH\.g\[13\]\.u\.OUTP
*112 digitalH\.g\[14\]\.u\.OUTN
*113 digitalH\.g\[14\]\.u\.OUTP
*114 digitalH\.g\[15\]\.u\.OUTN
*115 digitalH\.g\[15\]\.u\.OUTP
*116 digitalH\.g\[16\]\.u\.OUTN
*117 digitalH\.g\[16\]\.u\.OUTP
*118 digitalH\.g\[17\]\.u\.OUTN
*119 digitalH\.g\[17\]\.u\.OUTP
*120 digitalH\.g\[18\]\.u\.OUTN
*121 digitalH\.g\[18\]\.u\.OUTP
*122 digitalH\.g\[19\]\.u\.OUTN
*123 digitalH\.g\[19\]\.u\.OUTP
*124 digitalH\.g\[1\]\.u\.OUTN
*125 digitalH\.g\[1\]\.u\.OUTP
*126 digitalH\.g\[20\]\.u\.OUTN
*127 digitalH\.g\[20\]\.u\.OUTP
*128 digitalH\.g\[21\]\.u\.OUTN
*129 digitalH\.g\[21\]\.u\.OUTP
*130 digitalH\.g\[22\]\.u\.OUTN
*131 digitalH\.g\[22\]\.u\.OUTP
*132 digitalH\.g\[23\]\.u\.OUTN
*133 digitalH\.g\[23\]\.u\.OUTP
*134 digitalH\.g\[24\]\.u\.OUTN
*135 digitalH\.g\[24\]\.u\.OUTP
*136 digitalH\.g\[25\]\.u\.OUTN
*137 digitalH\.g\[25\]\.u\.OUTP
*138 digitalH\.g\[26\]\.u\.OUTN
*139 digitalH\.g\[26\]\.u\.OUTP
*140 digitalH\.g\[27\]\.u\.OUTN
*141 digitalH\.g\[27\]\.u\.OUTP
*142 digitalH\.g\[28\]\.u\.OUTN
*143 digitalH\.g\[28\]\.u\.OUTP
*144 digitalH\.g\[29\]\.u\.OUTN
*145 digitalH\.g\[29\]\.u\.OUTP
*146 digitalH\.g\[2\]\.u\.OUTN
*147 digitalH\.g\[2\]\.u\.OUTP
*148 digitalH\.g\[30\]\.u\.OUTN
*149 digitalH\.g\[30\]\.u\.OUTP
*150 digitalH\.g\[31\]\.u\.OUTN
*151 digitalH\.g\[31\]\.u\.OUTP
*152 digitalH\.g\[32\]\.u\.OUTN
*153 digitalH\.g\[32\]\.u\.OUTP
*154 digitalH\.g\[33\]\.u\.OUTN
*155 digitalH\.g\[33\]\.u\.OUTP
*156 digitalH\.g\[34\]\.u\.OUTN
*157 digitalH\.g\[34\]\.u\.OUTP
*158 digitalH\.g\[35\]\.u\.OUTN
*159 digitalH\.g\[35\]\.u\.OUTP
*160 digitalH\.g\[36\]\.u\.OUTN
*161 digitalH\.g\[36\]\.u\.OUTP
*162 digitalH\.g\[37\]\.u\.OUTN
*163 digitalH\.g\[37\]\.u\.OUTP
*164 digitalH\.g\[38\]\.u\.OUTN
*165 digitalH\.g\[38\]\.u\.OUTP
*166 digitalH\.g\[39\]\.u\.OUTN
*167 digitalH\.g\[39\]\.u\.OUTP
*168 digitalH\.g\[3\]\.u\.OUTN
*169 digitalH\.g\[3\]\.u\.OUTP
*170 digitalH\.g\[40\]\.u\.OUTN
*171 digitalH\.g\[40\]\.u\.OUTP
*172 digitalH\.g\[41\]\.u\.OUTN
*173 digitalH\.g\[41\]\.u\.OUTP
*174 digitalH\.g\[42\]\.u\.OUTN
*175 digitalH\.g\[42\]\.u\.OUTP
*176 digitalH\.g\[43\]\.u\.OUTN
*177 digitalH\.g\[43\]\.u\.OUTP
*178 digitalH\.g\[44\]\.u\.OUTN
*179 digitalH\.g\[44\]\.u\.OUTP
*180 digitalH\.g\[45\]\.u\.OUTN
*181 digitalH\.g\[45\]\.u\.OUTP
*182 digitalH\.g\[46\]\.u\.OUTN
*183 digitalH\.g\[46\]\.u\.OUTP
*184 digitalH\.g\[47\]\.u\.OUTN
*185 digitalH\.g\[47\]\.u\.OUTP
*186 digitalH\.g\[48\]\.u\.OUTN
*187 digitalH\.g\[48\]\.u\.OUTP
*188 digitalH\.g\[49\]\.u\.OUTN
*189 digitalH\.g\[49\]\.u\.OUTP
*190 digitalH\.g\[4\]\.u\.OUTN
*191 digitalH\.g\[4\]\.u\.OUTP
*192 digitalH\.g\[50\]\.u\.OUTN
*193 digitalH\.g\[50\]\.u\.OUTP
*194 digitalH\.g\[51\]\.u\.OUTN
*195 digitalH\.g\[51\]\.u\.OUTP
*196 digitalH\.g\[52\]\.u\.OUTN
*197 digitalH\.g\[52\]\.u\.OUTP
*198 digitalH\.g\[53\]\.u\.OUTN
*199 digitalH\.g\[53\]\.u\.OUTP
*200 digitalH\.g\[54\]\.u\.OUTN
*201 digitalH\.g\[54\]\.u\.OUTP
*202 digitalH\.g\[55\]\.u\.OUTN
*203 digitalH\.g\[55\]\.u\.OUTP
*204 digitalH\.g\[56\]\.u\.OUTN
*205 digitalH\.g\[56\]\.u\.OUTP
*206 digitalH\.g\[57\]\.u\.OUTN
*207 digitalH\.g\[57\]\.u\.OUTP
*208 digitalH\.g\[58\]\.u\.OUTN
*209 digitalH\.g\[58\]\.u\.OUTP
*210 digitalH\.g\[59\]\.u\.OUTN
*211 digitalH\.g\[59\]\.u\.OUTP
*212 digitalH\.g\[5\]\.u\.OUTN
*213 digitalH\.g\[5\]\.u\.OUTP
*214 digitalH\.g\[60\]\.u\.OUTN
*215 digitalH\.g\[60\]\.u\.OUTP
*216 digitalH\.g\[61\]\.u\.OUTN
*217 digitalH\.g\[61\]\.u\.OUTP
*218 digitalH\.g\[62\]\.u\.OUTN
*219 digitalH\.g\[62\]\.u\.OUTP
*220 digitalH\.g\[63\]\.u\.OUTN
*221 digitalH\.g\[63\]\.u\.OUTP
*222 digitalH\.g\[64\]\.u\.OUTN
*223 digitalH\.g\[64\]\.u\.OUTP
*224 digitalH\.g\[65\]\.u\.OUTN
*225 digitalH\.g\[65\]\.u\.OUTP
*226 digitalH\.g\[66\]\.u\.OUTN
*227 digitalH\.g\[66\]\.u\.OUTP
*228 digitalH\.g\[67\]\.u\.OUTN
*229 digitalH\.g\[67\]\.u\.OUTP
*230 digitalH\.g\[68\]\.u\.OUTN
*231 digitalH\.g\[68\]\.u\.OUTP
*232 digitalH\.g\[69\]\.u\.OUTN
*233 digitalH\.g\[69\]\.u\.OUTP
*234 digitalH\.g\[6\]\.u\.OUTN
*235 digitalH\.g\[6\]\.u\.OUTP
*236 digitalH\.g\[70\]\.u\.OUTN
*237 digitalH\.g\[70\]\.u\.OUTP
*238 digitalH\.g\[71\]\.u\.OUTN
*239 digitalH\.g\[71\]\.u\.OUTP
*240 digitalH\.g\[72\]\.u\.OUTN
*241 digitalH\.g\[72\]\.u\.OUTP
*242 digitalH\.g\[73\]\.u\.OUTN
*243 digitalH\.g\[73\]\.u\.OUTP
*244 digitalH\.g\[74\]\.u\.OUTN
*245 digitalH\.g\[74\]\.u\.OUTP
*246 digitalH\.g\[75\]\.u\.OUTN
*247 digitalH\.g\[75\]\.u\.OUTP
*248 digitalH\.g\[76\]\.u\.OUTN
*249 digitalH\.g\[76\]\.u\.OUTP
*250 digitalH\.g\[77\]\.u\.OUTN
*251 digitalH\.g\[77\]\.u\.OUTP
*252 digitalH\.g\[78\]\.u\.OUTN
*253 digitalH\.g\[78\]\.u\.OUTP
*254 digitalH\.g\[79\]\.u\.OUTN
*255 digitalH\.g\[79\]\.u\.OUTP
*256 digitalH\.g\[7\]\.u\.OUTN
*257 digitalH\.g\[7\]\.u\.OUTP
*258 digitalH\.g\[80\]\.u\.OUTN
*259 digitalH\.g\[80\]\.u\.OUTP
*260 digitalH\.g\[81\]\.u\.OUTN
*261 digitalH\.g\[81\]\.u\.OUTP
*262 digitalH\.g\[82\]\.u\.OUTN
*263 digitalH\.g\[82\]\.u\.OUTP
*264 digitalH\.g\[83\]\.u\.OUTN
*265 digitalH\.g\[83\]\.u\.OUTP
*266 digitalH\.g\[84\]\.u\.OUTN
*267 digitalH\.g\[84\]\.u\.OUTP
*268 digitalH\.g\[85\]\.u\.OUTN
*269 digitalH\.g\[85\]\.u\.OUTP
*270 digitalH\.g\[86\]\.u\.OUTN
*271 digitalH\.g\[86\]\.u\.OUTP
*272 digitalH\.g\[87\]\.u\.OUTN
*273 digitalH\.g\[87\]\.u\.OUTP
*274 digitalH\.g\[88\]\.u\.OUTN
*275 digitalH\.g\[88\]\.u\.OUTP
*276 digitalH\.g\[89\]\.u\.OUTN
*277 digitalH\.g\[89\]\.u\.OUTP
*278 digitalH\.g\[8\]\.u\.OUTN
*279 digitalH\.g\[8\]\.u\.OUTP
*280 digitalH\.g\[90\]\.u\.OUTN
*281 digitalH\.g\[90\]\.u\.OUTP
*282 digitalH\.g\[91\]\.u\.OUTN
*283 digitalH\.g\[91\]\.u\.OUTP
*284 digitalH\.g\[92\]\.u\.OUTN
*285 digitalH\.g\[92\]\.u\.OUTP
*286 digitalH\.g\[93\]\.u\.OUTN
*287 digitalH\.g\[93\]\.u\.OUTP
*288 digitalH\.g\[94\]\.u\.OUTN
*289 digitalH\.g\[94\]\.u\.OUTP
*290 digitalH\.g\[95\]\.u\.OUTN
*291 digitalH\.g\[95\]\.u\.OUTP
*292 digitalH\.g\[96\]\.u\.OUTN
*293 digitalH\.g\[96\]\.u\.OUTP
*294 digitalH\.g\[97\]\.u\.OUTN
*295 digitalH\.g\[97\]\.u\.OUTP
*296 digitalH\.g\[98\]\.u\.OUTN
*297 digitalH\.g\[98\]\.u\.OUTP
*298 digitalH\.g\[99\]\.u\.OUTN
*299 digitalH\.g\[99\]\.u\.OUTP
*300 digitalH\.g\[9\]\.u\.OUTN
*301 digitalH\.g\[9\]\.u\.OUTP
*302 digitalL\.g\[0\]\.u\.OUTN
*303 digitalL\.g\[0\]\.u\.OUTP
*304 digitalL\.g\[100\]\.u\.OUTN
*305 digitalL\.g\[100\]\.u\.OUTP
*306 digitalL\.g\[101\]\.u\.OUTN
*307 digitalL\.g\[101\]\.u\.OUTP
*308 digitalL\.g\[102\]\.u\.OUTN
*309 digitalL\.g\[102\]\.u\.OUTP
*310 digitalL\.g\[103\]\.u\.OUTN
*311 digitalL\.g\[103\]\.u\.OUTP
*312 digitalL\.g\[104\]\.u\.OUTN
*313 digitalL\.g\[104\]\.u\.OUTP
*314 digitalL\.g\[105\]\.u\.OUTN
*315 digitalL\.g\[105\]\.u\.OUTP
*316 digitalL\.g\[106\]\.u\.OUTN
*317 digitalL\.g\[106\]\.u\.OUTP
*318 digitalL\.g\[107\]\.u\.OUTN
*319 digitalL\.g\[107\]\.u\.OUTP
*320 digitalL\.g\[108\]\.u\.OUTN
*321 digitalL\.g\[108\]\.u\.OUTP
*322 digitalL\.g\[109\]\.u\.OUTN
*323 digitalL\.g\[109\]\.u\.OUTP
*324 digitalL\.g\[10\]\.u\.OUTN
*325 digitalL\.g\[10\]\.u\.OUTP
*326 digitalL\.g\[110\]\.u\.OUTN
*327 digitalL\.g\[110\]\.u\.OUTP
*328 digitalL\.g\[111\]\.u\.OUTN
*329 digitalL\.g\[111\]\.u\.OUTP
*330 digitalL\.g\[112\]\.u\.OUTN
*331 digitalL\.g\[112\]\.u\.OUTP
*332 digitalL\.g\[113\]\.u\.OUTN
*333 digitalL\.g\[113\]\.u\.OUTP
*334 digitalL\.g\[114\]\.u\.OUTN
*335 digitalL\.g\[114\]\.u\.OUTP
*336 digitalL\.g\[115\]\.u\.OUTN
*337 digitalL\.g\[115\]\.u\.OUTP
*338 digitalL\.g\[116\]\.u\.OUTN
*339 digitalL\.g\[116\]\.u\.OUTP
*340 digitalL\.g\[117\]\.u\.OUTN
*341 digitalL\.g\[117\]\.u\.OUTP
*342 digitalL\.g\[118\]\.u\.OUTN
*343 digitalL\.g\[118\]\.u\.OUTP
*344 digitalL\.g\[119\]\.u\.OUTN
*345 digitalL\.g\[119\]\.u\.OUTP
*346 digitalL\.g\[11\]\.u\.OUTN
*347 digitalL\.g\[11\]\.u\.OUTP
*348 digitalL\.g\[120\]\.u\.OUTN
*349 digitalL\.g\[120\]\.u\.OUTP
*350 digitalL\.g\[121\]\.u\.OUTN
*351 digitalL\.g\[121\]\.u\.OUTP
*352 digitalL\.g\[122\]\.u\.OUTN
*353 digitalL\.g\[122\]\.u\.OUTP
*354 digitalL\.g\[123\]\.u\.OUTN
*355 digitalL\.g\[123\]\.u\.OUTP
*356 digitalL\.g\[124\]\.u\.OUTN
*357 digitalL\.g\[124\]\.u\.OUTP
*358 digitalL\.g\[125\]\.u\.OUTN
*359 digitalL\.g\[125\]\.u\.OUTP
*360 digitalL\.g\[126\]\.u\.OUTN
*361 digitalL\.g\[126\]\.u\.OUTP
*362 digitalL\.g\[127\]\.u\.OUTN
*363 digitalL\.g\[127\]\.u\.OUTP
*364 digitalL\.g\[12\]\.u\.OUTN
*365 digitalL\.g\[12\]\.u\.OUTP
*366 digitalL\.g\[13\]\.u\.OUTN
*367 digitalL\.g\[13\]\.u\.OUTP
*368 digitalL\.g\[14\]\.u\.OUTN
*369 digitalL\.g\[14\]\.u\.OUTP
*370 digitalL\.g\[15\]\.u\.OUTN
*371 digitalL\.g\[15\]\.u\.OUTP
*372 digitalL\.g\[16\]\.u\.OUTN
*373 digitalL\.g\[16\]\.u\.OUTP
*374 digitalL\.g\[17\]\.u\.OUTN
*375 digitalL\.g\[17\]\.u\.OUTP
*376 digitalL\.g\[18\]\.u\.OUTN
*377 digitalL\.g\[18\]\.u\.OUTP
*378 digitalL\.g\[19\]\.u\.OUTN
*379 digitalL\.g\[19\]\.u\.OUTP
*380 digitalL\.g\[1\]\.u\.OUTN
*381 digitalL\.g\[1\]\.u\.OUTP
*382 digitalL\.g\[20\]\.u\.OUTN
*383 digitalL\.g\[20\]\.u\.OUTP
*384 digitalL\.g\[21\]\.u\.OUTN
*385 digitalL\.g\[21\]\.u\.OUTP
*386 digitalL\.g\[22\]\.u\.OUTN
*387 digitalL\.g\[22\]\.u\.OUTP
*388 digitalL\.g\[23\]\.u\.OUTN
*389 digitalL\.g\[23\]\.u\.OUTP
*390 digitalL\.g\[24\]\.u\.OUTN
*391 digitalL\.g\[24\]\.u\.OUTP
*392 digitalL\.g\[25\]\.u\.OUTN
*393 digitalL\.g\[25\]\.u\.OUTP
*394 digitalL\.g\[26\]\.u\.OUTN
*395 digitalL\.g\[26\]\.u\.OUTP
*396 digitalL\.g\[27\]\.u\.OUTN
*397 digitalL\.g\[27\]\.u\.OUTP
*398 digitalL\.g\[28\]\.u\.OUTN
*399 digitalL\.g\[28\]\.u\.OUTP
*400 digitalL\.g\[29\]\.u\.OUTN
*401 digitalL\.g\[29\]\.u\.OUTP
*402 digitalL\.g\[2\]\.u\.OUTN
*403 digitalL\.g\[2\]\.u\.OUTP
*404 digitalL\.g\[30\]\.u\.OUTN
*405 digitalL\.g\[30\]\.u\.OUTP
*406 digitalL\.g\[31\]\.u\.OUTN
*407 digitalL\.g\[31\]\.u\.OUTP
*408 digitalL\.g\[32\]\.u\.OUTN
*409 digitalL\.g\[32\]\.u\.OUTP
*410 digitalL\.g\[33\]\.u\.OUTN
*411 digitalL\.g\[33\]\.u\.OUTP
*412 digitalL\.g\[34\]\.u\.OUTN
*413 digitalL\.g\[34\]\.u\.OUTP
*414 digitalL\.g\[35\]\.u\.OUTN
*415 digitalL\.g\[35\]\.u\.OUTP
*416 digitalL\.g\[36\]\.u\.OUTN
*417 digitalL\.g\[36\]\.u\.OUTP
*418 digitalL\.g\[37\]\.u\.OUTN
*419 digitalL\.g\[37\]\.u\.OUTP
*420 digitalL\.g\[38\]\.u\.OUTN
*421 digitalL\.g\[38\]\.u\.OUTP
*422 digitalL\.g\[39\]\.u\.OUTN
*423 digitalL\.g\[39\]\.u\.OUTP
*424 digitalL\.g\[3\]\.u\.OUTN
*425 digitalL\.g\[3\]\.u\.OUTP
*426 digitalL\.g\[40\]\.u\.OUTN
*427 digitalL\.g\[40\]\.u\.OUTP
*428 digitalL\.g\[41\]\.u\.OUTN
*429 digitalL\.g\[41\]\.u\.OUTP
*430 digitalL\.g\[42\]\.u\.OUTN
*431 digitalL\.g\[42\]\.u\.OUTP
*432 digitalL\.g\[43\]\.u\.OUTN
*433 digitalL\.g\[43\]\.u\.OUTP
*434 digitalL\.g\[44\]\.u\.OUTN
*435 digitalL\.g\[44\]\.u\.OUTP
*436 digitalL\.g\[45\]\.u\.OUTN
*437 digitalL\.g\[45\]\.u\.OUTP
*438 digitalL\.g\[46\]\.u\.OUTN
*439 digitalL\.g\[46\]\.u\.OUTP
*440 digitalL\.g\[47\]\.u\.OUTN
*441 digitalL\.g\[47\]\.u\.OUTP
*442 digitalL\.g\[48\]\.u\.OUTN
*443 digitalL\.g\[48\]\.u\.OUTP
*444 digitalL\.g\[49\]\.u\.OUTN
*445 digitalL\.g\[49\]\.u\.OUTP
*446 digitalL\.g\[4\]\.u\.OUTN
*447 digitalL\.g\[4\]\.u\.OUTP
*448 digitalL\.g\[50\]\.u\.OUTN
*449 digitalL\.g\[50\]\.u\.OUTP
*450 digitalL\.g\[51\]\.u\.OUTN
*451 digitalL\.g\[51\]\.u\.OUTP
*452 digitalL\.g\[52\]\.u\.OUTN
*453 digitalL\.g\[52\]\.u\.OUTP
*454 digitalL\.g\[53\]\.u\.OUTN
*455 digitalL\.g\[53\]\.u\.OUTP
*456 digitalL\.g\[54\]\.u\.OUTN
*457 digitalL\.g\[54\]\.u\.OUTP
*458 digitalL\.g\[55\]\.u\.OUTN
*459 digitalL\.g\[55\]\.u\.OUTP
*460 digitalL\.g\[56\]\.u\.OUTN
*461 digitalL\.g\[56\]\.u\.OUTP
*462 digitalL\.g\[57\]\.u\.OUTN
*463 digitalL\.g\[57\]\.u\.OUTP
*464 digitalL\.g\[58\]\.u\.OUTN
*465 digitalL\.g\[58\]\.u\.OUTP
*466 digitalL\.g\[59\]\.u\.OUTN
*467 digitalL\.g\[59\]\.u\.OUTP
*468 digitalL\.g\[5\]\.u\.OUTN
*469 digitalL\.g\[5\]\.u\.OUTP
*470 digitalL\.g\[60\]\.u\.OUTN
*471 digitalL\.g\[60\]\.u\.OUTP
*472 digitalL\.g\[61\]\.u\.OUTN
*473 digitalL\.g\[61\]\.u\.OUTP
*474 digitalL\.g\[62\]\.u\.OUTN
*475 digitalL\.g\[62\]\.u\.OUTP
*476 digitalL\.g\[63\]\.u\.OUTN
*477 digitalL\.g\[63\]\.u\.OUTP
*478 digitalL\.g\[64\]\.u\.OUTN
*479 digitalL\.g\[64\]\.u\.OUTP
*480 digitalL\.g\[65\]\.u\.OUTN
*481 digitalL\.g\[65\]\.u\.OUTP
*482 digitalL\.g\[66\]\.u\.OUTN
*483 digitalL\.g\[66\]\.u\.OUTP
*484 digitalL\.g\[67\]\.u\.OUTN
*485 digitalL\.g\[67\]\.u\.OUTP
*486 digitalL\.g\[68\]\.u\.OUTN
*487 digitalL\.g\[68\]\.u\.OUTP
*488 digitalL\.g\[69\]\.u\.OUTN
*489 digitalL\.g\[69\]\.u\.OUTP
*490 digitalL\.g\[6\]\.u\.OUTN
*491 digitalL\.g\[6\]\.u\.OUTP
*492 digitalL\.g\[70\]\.u\.OUTN
*493 digitalL\.g\[70\]\.u\.OUTP
*494 digitalL\.g\[71\]\.u\.OUTN
*495 digitalL\.g\[71\]\.u\.OUTP
*496 digitalL\.g\[72\]\.u\.OUTN
*497 digitalL\.g\[72\]\.u\.OUTP
*498 digitalL\.g\[73\]\.u\.OUTN
*499 digitalL\.g\[73\]\.u\.OUTP
*500 digitalL\.g\[74\]\.u\.OUTN
*501 digitalL\.g\[74\]\.u\.OUTP
*502 digitalL\.g\[75\]\.u\.OUTN
*503 digitalL\.g\[75\]\.u\.OUTP
*504 digitalL\.g\[76\]\.u\.OUTN
*505 digitalL\.g\[76\]\.u\.OUTP
*506 digitalL\.g\[77\]\.u\.OUTN
*507 digitalL\.g\[77\]\.u\.OUTP
*508 digitalL\.g\[78\]\.u\.OUTN
*509 digitalL\.g\[78\]\.u\.OUTP
*510 digitalL\.g\[79\]\.u\.OUTN
*511 digitalL\.g\[79\]\.u\.OUTP
*512 digitalL\.g\[7\]\.u\.OUTN
*513 digitalL\.g\[7\]\.u\.OUTP
*514 digitalL\.g\[80\]\.u\.OUTN
*515 digitalL\.g\[80\]\.u\.OUTP
*516 digitalL\.g\[81\]\.u\.OUTN
*517 digitalL\.g\[81\]\.u\.OUTP
*518 digitalL\.g\[82\]\.u\.OUTN
*519 digitalL\.g\[82\]\.u\.OUTP
*520 digitalL\.g\[83\]\.u\.OUTN
*521 digitalL\.g\[83\]\.u\.OUTP
*522 digitalL\.g\[84\]\.u\.OUTN
*523 digitalL\.g\[84\]\.u\.OUTP
*524 digitalL\.g\[85\]\.u\.OUTN
*525 digitalL\.g\[85\]\.u\.OUTP
*526 digitalL\.g\[86\]\.u\.OUTN
*527 digitalL\.g\[86\]\.u\.OUTP
*528 digitalL\.g\[87\]\.u\.OUTN
*529 digitalL\.g\[87\]\.u\.OUTP
*530 digitalL\.g\[88\]\.u\.OUTN
*531 digitalL\.g\[88\]\.u\.OUTP
*532 digitalL\.g\[89\]\.u\.OUTN
*533 digitalL\.g\[89\]\.u\.OUTP
*534 digitalL\.g\[8\]\.u\.OUTN
*535 digitalL\.g\[8\]\.u\.OUTP
*536 digitalL\.g\[90\]\.u\.OUTN
*537 digitalL\.g\[90\]\.u\.OUTP
*538 digitalL\.g\[91\]\.u\.OUTN
*539 digitalL\.g\[91\]\.u\.OUTP
*540 digitalL\.g\[92\]\.u\.OUTN
*541 digitalL\.g\[92\]\.u\.OUTP
*542 digitalL\.g\[93\]\.u\.OUTN
*543 digitalL\.g\[93\]\.u\.OUTP
*544 digitalL\.g\[94\]\.u\.OUTN
*545 digitalL\.g\[94\]\.u\.OUTP
*546 digitalL\.g\[95\]\.u\.OUTN
*547 digitalL\.g\[95\]\.u\.OUTP
*548 digitalL\.g\[96\]\.u\.OUTN
*549 digitalL\.g\[96\]\.u\.OUTP
*550 digitalL\.g\[97\]\.u\.OUTN
*551 digitalL\.g\[97\]\.u\.OUTP
*552 digitalL\.g\[98\]\.u\.OUTN
*553 digitalL\.g\[98\]\.u\.OUTP
*554 digitalL\.g\[99\]\.u\.OUTN
*555 digitalL\.g\[99\]\.u\.OUTP
*556 digitalL\.g\[9\]\.u\.OUTN
*557 digitalL\.g\[9\]\.u\.OUTP
*558 digitalenH\.g\[0\]\.u\.OUTN
*559 digitalenH\.g\[0\]\.u\.OUTP
*560 digitalenH\.g\[1\]\.u\.OUTN
*561 digitalenH\.g\[1\]\.u\.OUTP
*562 digitalenH\.g\[2\]\.u\.OUTN
*563 digitalenH\.g\[2\]\.u\.OUTP
*564 digitalenH\.g\[3\]\.u\.OUTN
*565 digitalenH\.g\[3\]\.u\.OUTP
*566 digitalenL\.g\[0\]\.u\.OUTN
*567 digitalenL\.g\[0\]\.u\.OUTP
*568 digitalenL\.g\[1\]\.u\.OUTN
*569 digitalenL\.g\[1\]\.u\.OUTP
*570 digitalenL\.g\[2\]\.u\.OUTN
*571 digitalenL\.g\[2\]\.u\.OUTP
*572 digitalenL\.g\[3\]\.u\.OUTN
*573 digitalenL\.g\[3\]\.u\.OUTP
*574 net1
*575 net10
*576 net100
*577 net101
*578 net102
*579 net103
*580 net104
*581 net105
*582 net106
*583 net107
*584 net108
*585 net109
*586 net11
*587 net110
*588 net111
*589 net112
*590 net113
*591 net114
*592 net115
*593 net12
*594 net13
*595 net14
*596 net15
*597 net16
*598 net17
*599 net18
*600 net19
*601 net2
*602 net20
*603 net21
*604 net22
*605 net23
*606 net24
*607 net25
*608 net26
*609 net27
*610 net28
*611 net29
*612 net3
*613 net30
*614 net31
*615 net32
*616 net33
*617 net34
*618 net35
*619 net36
*620 net37
*621 net38
*622 net39
*623 net4
*624 net40
*625 net41
*626 net42
*627 net43
*628 net44
*629 net45
*630 net46
*631 net47
*632 net48
*633 net49
*634 net5
*635 net50
*636 net51
*637 net52
*638 net53
*639 net54
*640 net55
*641 net56
*642 net57
*643 net58
*644 net59
*645 net6
*646 net60
*647 net61
*648 net62
*649 net63
*650 net64
*651 net65
*652 net66
*653 net67
*654 net68
*655 net69
*656 net7
*657 net70
*658 net71
*659 net72
*660 net73
*661 net74
*662 net75
*663 net76
*664 net77
*665 net78
*666 net79
*667 net8
*668 net80
*669 net81
*670 net82
*671 net83
*672 net84
*673 net85
*674 net86
*675 net87
*676 net88
*677 net89
*678 net9
*679 net90
*680 net91
*681 net92
*682 net93
*683 net94
*684 net95
*685 net96
*686 net97
*687 net98
*688 net99
*689 FILLER_0_0
*690 FILLER_0_1001
*691 FILLER_0_1008
*692 FILLER_0_1015
*693 FILLER_0_1022
*694 FILLER_0_105
*695 FILLER_0_112
*696 FILLER_0_119
*697 FILLER_0_126
*698 FILLER_0_133
*699 FILLER_0_14
*700 FILLER_0_140
*701 FILLER_0_147
*702 FILLER_0_154
*703 FILLER_0_161
*704 FILLER_0_168
*705 FILLER_0_175
*706 FILLER_0_182
*707 FILLER_0_189
*708 FILLER_0_196
*709 FILLER_0_203
*710 FILLER_0_21
*711 FILLER_0_210
*712 FILLER_0_217
*713 FILLER_0_224
*714 FILLER_0_231
*715 FILLER_0_238
*716 FILLER_0_245
*717 FILLER_0_252
*718 FILLER_0_259
*719 FILLER_0_266
*720 FILLER_0_273
*721 FILLER_0_28
*722 FILLER_0_280
*723 FILLER_0_287
*724 FILLER_0_294
*725 FILLER_0_301
*726 FILLER_0_308
*727 FILLER_0_315
*728 FILLER_0_322
*729 FILLER_0_329
*730 FILLER_0_336
*731 FILLER_0_343
*732 FILLER_0_35
*733 FILLER_0_350
*734 FILLER_0_357
*735 FILLER_0_364
*736 FILLER_0_371
*737 FILLER_0_378
*738 FILLER_0_385
*739 FILLER_0_392
*740 FILLER_0_399
*741 FILLER_0_406
*742 FILLER_0_413
*743 FILLER_0_42
*744 FILLER_0_420
*745 FILLER_0_427
*746 FILLER_0_434
*747 FILLER_0_441
*748 FILLER_0_448
*749 FILLER_0_455
*750 FILLER_0_462
*751 FILLER_0_469
*752 FILLER_0_476
*753 FILLER_0_483
*754 FILLER_0_49
*755 FILLER_0_490
*756 FILLER_0_497
*757 FILLER_0_504
*758 FILLER_0_511
*759 FILLER_0_518
*760 FILLER_0_525
*761 FILLER_0_532
*762 FILLER_0_539
*763 FILLER_0_546
*764 FILLER_0_553
*765 FILLER_0_56
*766 FILLER_0_560
*767 FILLER_0_567
*768 FILLER_0_574
*769 FILLER_0_581
*770 FILLER_0_588
*771 FILLER_0_595
*772 FILLER_0_602
*773 FILLER_0_609
*774 FILLER_0_616
*775 FILLER_0_623
*776 FILLER_0_63
*777 FILLER_0_630
*778 FILLER_0_637
*779 FILLER_0_644
*780 FILLER_0_651
*781 FILLER_0_658
*782 FILLER_0_665
*783 FILLER_0_672
*784 FILLER_0_679
*785 FILLER_0_686
*786 FILLER_0_693
*787 FILLER_0_7
*788 FILLER_0_70
*789 FILLER_0_700
*790 FILLER_0_707
*791 FILLER_0_714
*792 FILLER_0_721
*793 FILLER_0_728
*794 FILLER_0_735
*795 FILLER_0_742
*796 FILLER_0_749
*797 FILLER_0_756
*798 FILLER_0_763
*799 FILLER_0_77
*800 FILLER_0_770
*801 FILLER_0_777
*802 FILLER_0_784
*803 FILLER_0_791
*804 FILLER_0_798
*805 FILLER_0_805
*806 FILLER_0_812
*807 FILLER_0_819
*808 FILLER_0_826
*809 FILLER_0_833
*810 FILLER_0_84
*811 FILLER_0_840
*812 FILLER_0_847
*813 FILLER_0_854
*814 FILLER_0_861
*815 FILLER_0_868
*816 FILLER_0_875
*817 FILLER_0_882
*818 FILLER_0_889
*819 FILLER_0_896
*820 FILLER_0_903
*821 FILLER_0_91
*822 FILLER_0_910
*823 FILLER_0_917
*824 FILLER_0_924
*825 FILLER_0_931
*826 FILLER_0_938
*827 FILLER_0_945
*828 FILLER_0_952
*829 FILLER_0_959
*830 FILLER_0_966
*831 FILLER_0_973
*832 FILLER_0_98
*833 FILLER_0_980
*834 FILLER_0_987
*835 FILLER_0_994
*836 FILLER_10_103
*837 FILLER_10_110
*838 FILLER_10_117
*839 FILLER_10_12
*840 FILLER_10_124
*841 FILLER_10_131
*842 FILLER_10_138
*843 FILLER_10_145
*844 FILLER_10_152
*845 FILLER_10_159
*846 FILLER_10_166
*847 FILLER_10_173
*848 FILLER_10_180
*849 FILLER_10_187
*850 FILLER_10_19
*851 FILLER_10_194
*852 FILLER_10_201
*853 FILLER_10_208
*854 FILLER_10_215
*855 FILLER_10_222
*856 FILLER_10_229
*857 FILLER_10_236
*858 FILLER_10_243
*859 FILLER_10_250
*860 FILLER_10_257
*861 FILLER_10_26
*862 FILLER_10_264
*863 FILLER_10_271
*864 FILLER_10_278
*865 FILLER_10_285
*866 FILLER_10_292
*867 FILLER_10_299
*868 FILLER_10_306
*869 FILLER_10_313
*870 FILLER_10_320
*871 FILLER_10_327
*872 FILLER_10_33
*873 FILLER_10_334
*874 FILLER_10_341
*875 FILLER_10_348
*876 FILLER_10_355
*877 FILLER_10_362
*878 FILLER_10_369
*879 FILLER_10_376
*880 FILLER_10_383
*881 FILLER_10_390
*882 FILLER_10_397
*883 FILLER_10_40
*884 FILLER_10_404
*885 FILLER_10_411
*886 FILLER_10_418
*887 FILLER_10_425
*888 FILLER_10_432
*889 FILLER_10_439
*890 FILLER_10_446
*891 FILLER_10_453
*892 FILLER_10_460
*893 FILLER_10_467
*894 FILLER_10_47
*895 FILLER_10_474
*896 FILLER_10_481
*897 FILLER_10_488
*898 FILLER_10_495
*899 FILLER_10_502
*900 FILLER_10_509
*901 FILLER_10_516
*902 FILLER_10_523
*903 FILLER_10_530
*904 FILLER_10_537
*905 FILLER_10_54
*906 FILLER_10_544
*907 FILLER_10_551
*908 FILLER_10_558
*909 FILLER_10_565
*910 FILLER_10_572
*911 FILLER_10_579
*912 FILLER_10_586
*913 FILLER_10_593
*914 FILLER_10_600
*915 FILLER_10_607
*916 FILLER_10_61
*917 FILLER_10_614
*918 FILLER_10_621
*919 FILLER_10_628
*920 FILLER_10_635
*921 FILLER_10_642
*922 FILLER_10_649
*923 FILLER_10_656
*924 FILLER_10_663
*925 FILLER_10_670
*926 FILLER_10_677
*927 FILLER_10_68
*928 FILLER_10_684
*929 FILLER_10_691
*930 FILLER_10_698
*931 FILLER_10_705
*932 FILLER_10_712
*933 FILLER_10_719
*934 FILLER_10_726
*935 FILLER_10_730
*936 FILLER_10_735
*937 FILLER_10_75
*938 FILLER_10_82
*939 FILLER_10_89
*940 FILLER_10_96
*941 FILLER_11_106
*942 FILLER_11_113
*943 FILLER_11_120
*944 FILLER_11_127
*945 FILLER_11_134
*946 FILLER_11_141
*947 FILLER_11_148
*948 FILLER_11_15
*949 FILLER_11_155
*950 FILLER_11_162
*951 FILLER_11_169
*952 FILLER_11_176
*953 FILLER_11_183
*954 FILLER_11_190
*955 FILLER_11_197
*956 FILLER_11_204
*957 FILLER_11_211
*958 FILLER_11_218
*959 FILLER_11_22
*960 FILLER_11_225
*961 FILLER_11_232
*962 FILLER_11_239
*963 FILLER_11_246
*964 FILLER_11_253
*965 FILLER_11_260
*966 FILLER_11_267
*967 FILLER_11_274
*968 FILLER_11_281
*969 FILLER_11_288
*970 FILLER_11_29
*971 FILLER_11_295
*972 FILLER_11_302
*973 FILLER_11_309
*974 FILLER_11_316
*975 FILLER_11_323
*976 FILLER_11_330
*977 FILLER_11_337
*978 FILLER_11_344
*979 FILLER_11_351
*980 FILLER_11_358
*981 FILLER_11_36
*982 FILLER_11_365
*983 FILLER_11_372
*984 FILLER_11_379
*985 FILLER_11_386
*986 FILLER_11_393
*987 FILLER_11_400
*988 FILLER_11_407
*989 FILLER_11_414
*990 FILLER_11_421
*991 FILLER_11_428
*992 FILLER_11_43
*993 FILLER_11_435
*994 FILLER_11_442
*995 FILLER_11_449
*996 FILLER_11_456
*997 FILLER_11_463
*998 FILLER_11_470
*999 FILLER_11_477
*1000 FILLER_11_484
*1001 FILLER_11_491
*1002 FILLER_11_498
*1003 FILLER_11_50
*1004 FILLER_11_505
*1005 FILLER_11_512
*1006 FILLER_11_519
*1007 FILLER_11_526
*1008 FILLER_11_533
*1009 FILLER_11_540
*1010 FILLER_11_547
*1011 FILLER_11_554
*1012 FILLER_11_561
*1013 FILLER_11_568
*1014 FILLER_11_57
*1015 FILLER_11_575
*1016 FILLER_11_582
*1017 FILLER_11_589
*1018 FILLER_11_596
*1019 FILLER_11_603
*1020 FILLER_11_610
*1021 FILLER_11_617
*1022 FILLER_11_624
*1023 FILLER_11_631
*1024 FILLER_11_638
*1025 FILLER_11_64
*1026 FILLER_11_645
*1027 FILLER_11_652
*1028 FILLER_11_659
*1029 FILLER_11_666
*1030 FILLER_11_673
*1031 FILLER_11_680
*1032 FILLER_11_687
*1033 FILLER_11_694
*1034 FILLER_11_701
*1035 FILLER_11_708
*1036 FILLER_11_71
*1037 FILLER_11_715
*1038 FILLER_11_722
*1039 FILLER_11_729
*1040 FILLER_11_736
*1041 FILLER_11_738
*1042 FILLER_11_78
*1043 FILLER_11_8
*1044 FILLER_11_85
*1045 FILLER_11_92
*1046 FILLER_11_99
*1047 FILLER_12_102
*1048 FILLER_12_109
*1049 FILLER_12_11
*1050 FILLER_12_116
*1051 FILLER_12_123
*1052 FILLER_12_130
*1053 FILLER_12_137
*1054 FILLER_12_144
*1055 FILLER_12_151
*1056 FILLER_12_158
*1057 FILLER_12_165
*1058 FILLER_12_172
*1059 FILLER_12_179
*1060 FILLER_12_18
*1061 FILLER_12_186
*1062 FILLER_12_193
*1063 FILLER_12_200
*1064 FILLER_12_207
*1065 FILLER_12_214
*1066 FILLER_12_221
*1067 FILLER_12_228
*1068 FILLER_12_235
*1069 FILLER_12_242
*1070 FILLER_12_249
*1071 FILLER_12_25
*1072 FILLER_12_256
*1073 FILLER_12_263
*1074 FILLER_12_270
*1075 FILLER_12_277
*1076 FILLER_12_284
*1077 FILLER_12_291
*1078 FILLER_12_298
*1079 FILLER_12_305
*1080 FILLER_12_312
*1081 FILLER_12_319
*1082 FILLER_12_32
*1083 FILLER_12_326
*1084 FILLER_12_333
*1085 FILLER_12_340
*1086 FILLER_12_347
*1087 FILLER_12_354
*1088 FILLER_12_361
*1089 FILLER_12_368
*1090 FILLER_12_375
*1091 FILLER_12_382
*1092 FILLER_12_389
*1093 FILLER_12_39
*1094 FILLER_12_396
*1095 FILLER_12_4
*1096 FILLER_12_403
*1097 FILLER_12_410
*1098 FILLER_12_417
*1099 FILLER_12_424
*1100 FILLER_12_431
*1101 FILLER_12_438
*1102 FILLER_12_445
*1103 FILLER_12_452
*1104 FILLER_12_459
*1105 FILLER_12_46
*1106 FILLER_12_466
*1107 FILLER_12_473
*1108 FILLER_12_480
*1109 FILLER_12_487
*1110 FILLER_12_494
*1111 FILLER_12_501
*1112 FILLER_12_508
*1113 FILLER_12_515
*1114 FILLER_12_522
*1115 FILLER_12_529
*1116 FILLER_12_53
*1117 FILLER_12_536
*1118 FILLER_12_543
*1119 FILLER_12_550
*1120 FILLER_12_557
*1121 FILLER_12_564
*1122 FILLER_12_571
*1123 FILLER_12_578
*1124 FILLER_12_585
*1125 FILLER_12_592
*1126 FILLER_12_599
*1127 FILLER_12_60
*1128 FILLER_12_606
*1129 FILLER_12_613
*1130 FILLER_12_620
*1131 FILLER_12_627
*1132 FILLER_12_634
*1133 FILLER_12_641
*1134 FILLER_12_648
*1135 FILLER_12_655
*1136 FILLER_12_662
*1137 FILLER_12_669
*1138 FILLER_12_67
*1139 FILLER_12_676
*1140 FILLER_12_683
*1141 FILLER_12_690
*1142 FILLER_12_697
*1143 FILLER_12_704
*1144 FILLER_12_711
*1145 FILLER_12_718
*1146 FILLER_12_725
*1147 FILLER_12_732
*1148 FILLER_12_74
*1149 FILLER_12_81
*1150 FILLER_12_88
*1151 FILLER_12_95
*1152 FILLER_13_106
*1153 FILLER_13_113
*1154 FILLER_13_120
*1155 FILLER_13_127
*1156 FILLER_13_134
*1157 FILLER_13_141
*1158 FILLER_13_148
*1159 FILLER_13_15
*1160 FILLER_13_155
*1161 FILLER_13_162
*1162 FILLER_13_169
*1163 FILLER_13_176
*1164 FILLER_13_183
*1165 FILLER_13_190
*1166 FILLER_13_197
*1167 FILLER_13_204
*1168 FILLER_13_211
*1169 FILLER_13_218
*1170 FILLER_13_22
*1171 FILLER_13_225
*1172 FILLER_13_232
*1173 FILLER_13_239
*1174 FILLER_13_246
*1175 FILLER_13_253
*1176 FILLER_13_260
*1177 FILLER_13_267
*1178 FILLER_13_274
*1179 FILLER_13_281
*1180 FILLER_13_288
*1181 FILLER_13_29
*1182 FILLER_13_295
*1183 FILLER_13_302
*1184 FILLER_13_309
*1185 FILLER_13_316
*1186 FILLER_13_323
*1187 FILLER_13_330
*1188 FILLER_13_337
*1189 FILLER_13_344
*1190 FILLER_13_351
*1191 FILLER_13_358
*1192 FILLER_13_36
*1193 FILLER_13_365
*1194 FILLER_13_372
*1195 FILLER_13_379
*1196 FILLER_13_386
*1197 FILLER_13_393
*1198 FILLER_13_400
*1199 FILLER_13_407
*1200 FILLER_13_414
*1201 FILLER_13_421
*1202 FILLER_13_428
*1203 FILLER_13_43
*1204 FILLER_13_435
*1205 FILLER_13_442
*1206 FILLER_13_449
*1207 FILLER_13_456
*1208 FILLER_13_463
*1209 FILLER_13_470
*1210 FILLER_13_477
*1211 FILLER_13_484
*1212 FILLER_13_491
*1213 FILLER_13_498
*1214 FILLER_13_50
*1215 FILLER_13_505
*1216 FILLER_13_512
*1217 FILLER_13_519
*1218 FILLER_13_526
*1219 FILLER_13_533
*1220 FILLER_13_540
*1221 FILLER_13_547
*1222 FILLER_13_554
*1223 FILLER_13_561
*1224 FILLER_13_568
*1225 FILLER_13_57
*1226 FILLER_13_575
*1227 FILLER_13_582
*1228 FILLER_13_589
*1229 FILLER_13_596
*1230 FILLER_13_603
*1231 FILLER_13_610
*1232 FILLER_13_617
*1233 FILLER_13_624
*1234 FILLER_13_631
*1235 FILLER_13_638
*1236 FILLER_13_64
*1237 FILLER_13_645
*1238 FILLER_13_652
*1239 FILLER_13_659
*1240 FILLER_13_666
*1241 FILLER_13_673
*1242 FILLER_13_680
*1243 FILLER_13_687
*1244 FILLER_13_694
*1245 FILLER_13_701
*1246 FILLER_13_708
*1247 FILLER_13_71
*1248 FILLER_13_715
*1249 FILLER_13_722
*1250 FILLER_13_729
*1251 FILLER_13_736
*1252 FILLER_13_738
*1253 FILLER_13_78
*1254 FILLER_13_8
*1255 FILLER_13_85
*1256 FILLER_13_92
*1257 FILLER_13_99
*1258 FILLER_14_106
*1259 FILLER_14_113