*SPEF "ieee 1481-1999"
*DESIGN "heichips25_pudding"
*DATE "11:39:30 Thursday February 12, 2026"
*VENDOR "The OpenROAD Project"
*PROGRAM "OpenROAD"
*VERSION "dfc4f595dfb2e1c346492ff1f0274abb28725acf"
*DESIGN_FLOW "NAME_SCOPE LOCAL" "PIN_CAP NONE"
*DIVIDER /
*DELIMITER :
*BUS_DELIMITER []
*T_UNIT 1 NS
*C_UNIT 1 PF
*R_UNIT 1 OHM
*L_UNIT 1 HENRY

*NAME_MAP
*3 clk
*4 ena
*5 rst_n
*6 ui_in[0]
*7 ui_in[1]
*8 ui_in[2]
*9 ui_in[3]
*10 ui_in[4]
*11 ui_in[5]
*12 ui_in[6]
*13 ui_in[7]
*14 uio_in[0]
*15 uio_in[1]
*16 uio_in[2]
*17 uio_in[3]
*18 uio_in[4]
*19 uio_in[5]
*20 uio_in[6]
*21 uio_in[7]
*22 net457
*23 net458
*24 net459
*25 net460
*26 net461
*27 net462
*28 net463
*29 net464
*30 uio_out[0]
*31 uio_out[1]
*32 uio_out[2]
*33 uio_out[3]
*34 uio_out[4]
*35 uio_out[5]
*36 uio_out[6]
*37 uio_out[7]
*38 uo_out[0]
*39 uo_out[1]
*40 uo_out[2]
*41 uo_out[3]
*42 uo_out[4]
*43 uo_out[5]
*44 uo_out[6]
*45 uo_out[7]
*46 _0000_
*47 _0001_
*48 _0002_
*49 _0003_
*50 _0004_
*51 _0005_
*52 _0006_
*53 _0007_
*54 _0008_
*55 _0009_
*56 _0010_
*57 _0011_
*58 _0012_
*59 _0013_
*60 _0014_
*61 _0015_
*62 _0016_
*63 _0017_
*64 _0018_
*65 _0019_
*66 _0020_
*67 _0021_
*68 _0022_
*69 _0023_
*70 _0024_
*71 _0025_
*72 _0026_
*73 _0027_
*74 _0028_
*75 _0029_
*76 _0030_
*77 _0031_
*78 _0032_
*79 _0033_
*80 _0034_
*81 _0035_
*82 _0036_
*83 _0037_
*84 _0038_
*85 _0039_
*86 _0040_
*87 _0041_
*88 _0042_
*89 _0043_
*90 _0044_
*91 _0045_
*92 _0046_
*93 _0047_
*94 _0048_
*95 _0049_
*96 _0050_
*97 _0051_
*98 _0052_
*99 _0053_
*100 _0054_
*101 _0055_
*102 _0056_
*103 _0057_
*104 _0058_
*105 _0059_
*106 _0060_
*107 _0061_
*108 _0062_
*109 _0063_
*110 _0064_
*111 _0065_
*112 _0066_
*113 _0067_
*114 _0068_
*115 _0069_
*116 _0070_
*117 _0071_
*118 _0072_
*119 _0073_
*120 _0074_
*121 _0075_
*122 _0076_
*123 _0077_
*124 _0078_
*125 _0079_
*126 _0080_
*127 _0081_
*128 _0082_
*129 _0083_
*130 _0084_
*131 _0085_
*132 _0086_
*133 _0087_
*134 _0088_
*135 _0089_
*136 _0090_
*137 _0091_
*138 _0092_
*139 _0093_
*140 _0094_
*141 _0095_
*142 _0096_
*143 _0097_
*144 _0098_
*145 _0099_
*146 _0100_
*147 _0101_
*148 _0102_
*149 _0103_
*150 _0104_
*151 _0105_
*152 _0106_
*153 _0107_
*154 _0108_
*155 _0109_
*156 _0110_
*157 _0111_
*158 _0112_
*159 _0113_
*160 _0114_
*161 _0115_
*162 _0116_
*163 _0117_
*164 _0118_
*165 _0119_
*166 _0120_
*167 _0121_
*168 _0122_
*169 _0123_
*170 _0124_
*171 _0125_
*172 _0126_
*173 _0127_
*174 _0128_
*175 _0129_
*176 _0130_
*177 _0131_
*178 _0132_
*179 _0133_
*180 _0134_
*181 _0135_
*182 _0136_
*183 _0137_
*184 _0138_
*185 _0139_
*186 _0140_
*187 _0141_
*188 _0142_
*189 _0143_
*190 _0144_
*191 _0145_
*192 _0146_
*193 _0147_
*194 _0148_
*195 _0149_
*196 _0150_
*197 _0151_
*198 _0152_
*199 _0153_
*200 _0154_
*201 _0155_
*202 _0156_
*203 _0157_
*204 _0158_
*205 _0159_
*206 _0160_
*207 _0161_
*208 _0162_
*209 _0163_
*210 _0164_
*211 _0165_
*212 _0166_
*213 _0167_
*214 _0168_
*215 _0169_
*216 _0170_
*217 _0171_
*218 _0172_
*219 _0173_
*220 _0174_
*221 _0175_
*222 _0176_
*223 _0177_
*224 _0178_
*225 _0179_
*226 _0180_
*227 _0181_
*228 _0182_
*229 _0183_
*230 _0184_
*231 _0185_
*232 _0186_
*233 _0187_
*234 _0188_
*235 _0189_
*236 _0190_
*237 _0191_
*238 _0192_
*239 _0193_
*240 _0194_
*241 _0195_
*242 _0196_
*243 _0197_
*244 _0198_
*245 _0199_
*246 _0200_
*247 _0201_
*248 _0202_
*249 _0203_
*250 _0204_
*251 _0205_
*252 _0206_
*253 _0207_
*254 _0208_
*255 _0209_
*256 _0210_
*257 _0211_
*258 _0212_
*259 _0213_
*260 _0214_
*261 _0215_
*262 _0216_
*263 _0217_
*264 _0218_
*265 _0219_
*266 _0220_
*267 _0221_
*268 _0222_
*269 _0223_
*270 _0224_
*271 _0225_
*272 _0226_
*273 _0227_
*274 _0228_
*275 _0229_
*276 _0230_
*277 _0231_
*278 _0232_
*279 _0233_
*280 _0234_
*281 _0235_
*282 _0236_
*283 _0237_
*284 _0238_
*285 _0239_
*286 _0240_
*287 _0241_
*288 _0242_
*289 _0243_
*290 _0244_
*291 _0245_
*292 _0246_
*293 _0247_
*294 _0248_
*295 _0249_
*296 _0250_
*297 _0251_
*298 _0252_
*299 _0253_
*300 _0254_
*301 _0255_
*302 _0256_
*303 _0257_
*304 _0258_
*305 _0259_
*306 _0260_
*307 _0261_
*308 _0262_
*309 _0263_
*310 _0264_
*311 _0265_
*312 _0266_
*313 _0267_
*314 _0268_
*315 _0269_
*316 _0270_
*317 _0271_
*318 _0272_
*319 _0273_
*320 _0274_
*321 _0275_
*322 _0276_
*323 _0277_
*324 _0278_
*325 _0279_
*326 _0280_
*327 _0281_
*328 _0282_
*329 _0283_
*330 _0284_
*331 _0285_
*332 _0286_
*333 _0287_
*334 _0288_
*335 _0289_
*336 _0290_
*337 _0291_
*338 _0292_
*339 _0293_
*340 _0294_
*341 _0295_
*342 _0296_
*343 _0297_
*344 _0298_
*345 _0299_
*346 _0300_
*347 _0301_
*348 _0302_
*349 _0303_
*350 _0304_
*351 _0305_
*352 _0306_
*353 _0307_
*354 _0308_
*355 _0309_
*356 _0310_
*357 _0311_
*358 _0312_
*359 _0313_
*360 _0314_
*361 _0315_
*362 _0316_
*363 _0317_
*364 _0318_
*365 _0319_
*366 _0320_
*367 _0321_
*368 _0322_
*369 _0323_
*370 _0324_
*371 _0325_
*372 _0326_
*373 _0327_
*374 _0328_
*375 _0329_
*376 _0330_
*377 _0331_
*378 _0332_
*379 _0333_
*380 _0334_
*381 _0335_
*382 _0336_
*383 _0337_
*384 _0338_
*385 _0339_
*386 _0340_
*387 _0341_
*388 _0342_
*389 _0343_
*390 _0344_
*391 _0345_
*392 _0346_
*393 _0347_
*394 _0348_
*395 _0349_
*396 _0350_
*397 _0351_
*398 _0352_
*399 _0353_
*400 _0354_
*401 _0355_
*402 _0356_
*403 _0357_
*404 _0358_
*405 _0359_
*406 _0360_
*407 _0361_
*408 _0362_
*409 _0363_
*410 _0364_
*411 _0365_
*412 _0366_
*413 _0367_
*414 _0368_
*415 _0369_
*416 _0370_
*417 _0371_
*418 _0372_
*419 _0373_
*420 _0374_
*421 _0375_
*422 _0376_
*423 _0377_
*424 _0378_
*425 _0379_
*426 _0380_
*427 _0381_
*428 _0382_
*429 _0383_
*430 _0384_
*431 _0385_
*432 _0386_
*433 _0387_
*434 _0388_
*435 _0389_
*436 _0390_
*437 _0391_
*438 _0392_
*439 _0393_
*440 _0394_
*441 _0395_
*442 _0396_
*443 _0397_
*444 _0398_
*445 _0399_
*446 _0400_
*447 _0401_
*448 _0402_
*449 _0403_
*450 _0404_
*451 _0405_
*452 _0406_
*453 _0407_
*454 _0408_
*455 _0409_
*456 _0410_
*457 _0411_
*458 _0412_
*459 _0413_
*460 _0414_
*461 _0415_
*462 _0416_
*463 _0417_
*464 _0418_
*465 _0419_
*466 _0420_
*467 _0421_
*468 _0422_
*469 _0423_
*470 _0424_
*471 _0425_
*472 _0426_
*473 _0427_
*474 _0428_
*475 _0429_
*476 _0430_
*477 _0431_
*478 _0432_
*479 _0433_
*480 _0434_
*481 _0435_
*482 _0436_
*483 _0437_
*484 _0438_
*485 _0439_
*486 _0440_
*487 _0441_
*488 _0442_
*489 _0443_
*490 _0444_
*491 _0445_
*492 _0446_
*493 _0447_
*494 _0448_
*495 _0449_
*496 _0450_
*497 _0451_
*498 _0452_
*499 _0453_
*500 _0454_
*501 _0455_
*502 _0456_
*503 _0457_
*504 _0458_
*505 _0459_
*506 _0460_
*507 _0461_
*508 _0462_
*509 _0463_
*510 _0464_
*511 _0465_
*512 _0466_
*513 _0467_
*514 _0468_
*515 _0469_
*516 _0470_
*517 _0471_
*518 _0472_
*519 _0473_
*520 _0474_
*521 _0475_
*522 _0476_
*523 _0477_
*524 _0478_
*525 _0479_
*526 _0480_
*527 _0481_
*528 _0482_
*529 _0483_
*530 _0484_
*531 _0485_
*532 _0486_
*533 _0487_
*534 _0488_
*535 _0489_
*536 _0490_
*537 _0491_
*538 _0492_
*539 _0493_
*540 _0494_
*541 _0495_
*542 _0496_
*543 _0497_
*544 _0498_
*545 _0499_
*546 _0500_
*547 _0501_
*548 _0502_
*549 _0503_
*550 _0504_
*551 _0505_
*552 _0506_
*553 _0507_
*554 _0508_
*555 _0509_
*556 _0510_
*557 _0511_
*558 _0512_
*559 _0513_
*560 _0514_
*561 _0515_
*562 _0516_
*563 _0517_
*564 _0518_
*565 _0519_
*566 _0520_
*567 _0521_
*568 _0522_
*569 _0523_
*570 _0524_
*571 _0525_
*572 _0526_
*573 _0527_
*574 _0528_
*575 _0529_
*576 _0530_
*577 _0531_
*578 _0532_
*579 _0533_
*580 _0534_
*581 _0535_
*582 _0536_
*583 _0537_
*584 _0538_
*585 _0539_
*586 _0540_
*587 _0541_
*588 _0542_
*589 _0543_
*590 _0544_
*591 _0545_
*592 _0546_
*593 _0547_
*594 _0548_
*595 _0549_
*596 _0550_
*597 _0551_
*598 _0552_
*599 _0553_
*600 _0554_
*601 _0555_
*602 _0556_
*603 _0557_
*604 _0558_
*605 _0559_
*606 _0560_
*607 _0561_
*608 _0562_
*609 _0563_
*610 _0564_
*611 _0565_
*612 _0566_
*613 _0567_
*614 _0568_
*615 _0569_
*616 _0570_
*617 _0571_
*618 _0572_
*619 _0573_
*620 _0574_
*621 _0575_
*622 _0576_
*623 _0577_
*624 _0578_
*625 _0579_
*626 _0580_
*627 _0581_
*628 _0582_
*629 _0583_
*630 _0584_
*631 _0585_
*632 _0586_
*633 _0587_
*634 _0588_
*635 _0589_
*636 _0590_
*637 _0591_
*638 _0592_
*639 _0593_
*640 _0594_
*641 _0595_
*642 _0596_
*643 _0597_
*644 _0598_
*645 _0599_
*646 _0600_
*647 _0601_
*648 _0602_
*649 _0603_
*650 _0604_
*651 _0605_
*652 _0606_
*653 _0607_
*654 _0608_
*655 _0609_
*656 _0610_
*657 _0611_
*658 _0612_
*659 _0613_
*660 _0614_
*661 _0615_
*662 _0616_
*663 _0617_
*664 _0618_
*665 _0619_
*666 _0620_
*667 _0621_
*668 _0622_
*669 _0623_
*670 _0624_
*671 _0625_
*672 _0626_
*673 _0627_
*674 _0628_
*675 _0629_
*676 _0630_
*677 _0631_
*678 _0632_
*679 _0633_
*680 _0634_
*681 _0635_
*682 _0636_
*683 _0637_
*684 _0638_
*685 _0639_
*686 _0640_
*687 _0641_
*688 _0642_
*689 _0643_
*690 _0644_
*691 _0645_
*692 _0646_
*693 _0647_
*694 _0648_
*695 _0649_
*696 _0650_
*697 _0651_
*698 _0652_
*699 _0653_
*700 _0654_
*701 _0655_
*702 _0656_
*703 _0657_
*704 _0658_
*705 _0659_
*706 _0660_
*707 _0661_
*708 _0662_
*709 _0663_
*710 _0664_
*711 _0665_
*712 _0666_
*713 _0667_
*714 _0668_
*715 _0669_
*716 _0670_
*717 _0671_
*718 _0672_
*719 _0673_
*720 _0674_
*721 _0675_
*722 _0676_
*723 _0677_
*724 _0678_
*725 _0679_
*726 _0680_
*727 _0681_
*728 _0682_
*729 _0683_
*730 _0684_
*731 _0685_
*732 _0686_
*733 _0687_
*734 _0688_
*735 _0689_
*736 _0690_
*737 _0691_
*738 _0692_
*739 _0693_
*740 _0694_
*741 _0695_
*742 _0696_
*743 _0697_
*744 _0698_
*745 _0699_
*746 _0700_
*747 _0701_
*748 _0702_
*749 _0703_
*750 _0704_
*751 _0705_
*752 _0706_
*753 _0707_
*754 _0708_
*755 _0709_
*756 _0710_
*757 _0711_
*758 _0712_
*759 _0713_
*760 _0714_
*761 _0715_
*762 _0716_
*763 _0717_
*764 _0718_
*765 _0719_
*766 _0720_
*767 _0721_
*768 _0722_
*769 _0723_
*770 _0724_
*771 _0725_
*772 _0726_
*773 _0727_
*774 _0728_
*775 _0729_
*776 _0730_
*777 _0731_
*778 _0732_
*779 _0733_
*780 _0734_
*781 _0735_
*782 _0736_
*783 _0737_
*784 _0738_
*785 _0739_
*786 _0740_
*787 _0741_
*788 _0742_
*789 _0743_
*790 _0744_
*791 _0745_
*792 _0746_
*793 _0747_
*794 _0748_
*795 _0749_
*796 _0750_
*797 _0751_
*798 _0752_
*799 _0753_
*800 _0754_
*801 _0755_
*802 _0756_
*803 _0757_
*804 _0758_
*805 _0759_
*806 _0760_
*807 _0761_
*808 _0762_
*809 _0763_
*810 _0764_
*811 _0765_
*812 _0766_
*813 _0767_
*814 _0768_
*815 _0769_
*816 _0770_
*817 _0771_
*818 _0772_
*819 _0773_
*820 _0774_
*821 _0775_
*822 _0776_
*823 _0777_
*824 _0778_
*825 _0779_
*826 _0780_
*827 _0781_
*828 _0782_
*829 _0783_
*830 _0784_
*831 _0785_
*832 _0786_
*833 _0787_
*834 _0788_
*835 _0789_
*836 _0790_
*837 _0791_
*838 _0792_
*839 _0793_
*840 _0794_
*841 _0795_
*842 _0796_
*843 _0797_
*844 _0798_
*845 _0799_
*846 _0800_
*847 _0801_
*848 _0802_
*849 _0803_
*850 _0804_
*851 _0805_
*852 _0806_
*853 _0807_
*854 _0808_
*855 _0809_
*856 _0810_
*857 _0811_
*858 _0812_
*859 _0813_
*860 _0814_
*861 _0815_
*862 _0816_
*863 _0817_
*864 _0818_
*865 _0819_
*866 _0820_
*867 _0821_
*868 _0822_
*869 _0823_
*870 _0824_
*871 _0825_
*872 _0826_
*873 _0827_
*874 _0828_
*875 _0829_
*876 _0830_
*877 _0831_
*878 _0832_
*879 _0833_
*880 _0834_
*881 _0835_
*882 _0836_
*883 _0837_
*884 _0838_
*885 _0839_
*886 _0840_
*887 _0841_
*888 _0842_
*889 _0843_
*890 _0844_
*891 _0845_
*892 _0846_
*893 _0847_
*894 _0848_
*895 _0849_
*896 _0850_
*897 _0851_
*898 _0852_
*899 _0853_
*900 _0854_
*901 _0855_
*902 _0856_
*903 _0857_
*904 _0858_
*905 _0859_
*906 _0860_
*907 _0861_
*908 _0862_
*909 _0863_
*910 _0864_
*911 _0865_
*912 _0866_
*913 _0867_
*914 _0868_
*915 _0869_
*916 _0870_
*917 _0871_
*918 _0872_
*919 _0873_
*920 _0874_
*921 _0875_
*922 _0876_
*923 _0877_
*924 _0878_
*925 _0879_
*926 _0880_
*927 _0881_
*928 _0882_
*929 _0883_
*930 _0884_
*931 _0885_
*932 _0886_
*933 _0887_
*934 _0888_
*935 _0889_
*936 _0890_
*937 _0891_
*938 _0892_
*939 _0893_
*940 _0894_
*941 _0895_
*942 _0896_
*943 _0897_
*944 _0898_
*945 _0899_
*946 _0900_
*947 _0901_
*948 _0902_
*949 _0903_
*950 _0904_
*951 _0905_
*952 _0906_
*953 _0907_
*954 _0908_
*955 _0909_
*956 _0910_
*957 _0911_
*958 _0912_
*959 _0913_
*960 _0914_
*961 _0915_
*962 _0916_
*963 _0917_
*964 _0918_
*965 _0919_
*966 _0920_
*967 _0921_
*968 _0922_
*969 _0923_
*970 _0924_
*971 _0925_
*972 _0926_
*973 _0927_
*974 _0928_
*975 _0929_
*976 _0930_
*977 _0931_
*978 _0932_
*979 _0933_
*980 _0934_
*981 _0935_
*982 _0936_
*983 _0937_
*984 _0938_
*985 _0939_
*986 _0940_
*987 _0941_
*988 _0942_
*989 _0943_
*990 _0944_
*991 _0945_
*992 _0946_
*993 _0947_
*994 _0948_
*995 _0949_
*996 _0950_
*997 _0951_
*998 _0952_
*999 _0953_
*1000 _0954_
*1001 _0955_
*1002 _0956_
*1003 _0957_
*1004 _0958_
*1005 _0959_
*1006 _0960_
*1007 _0961_
*1008 _0962_
*1009 _0963_
*1010 _0964_
*1011 _0965_
*1012 _0966_
*1013 _0967_
*1014 _0968_
*1015 _0969_
*1016 _0970_
*1017 _0971_
*1018 _0972_
*1019 _0973_
*1020 _0974_
*1021 _0975_
*1022 _0976_
*1023 _0977_
*1024 _0978_
*1025 _0979_
*1026 _0980_
*1027 _0981_
*1028 _0982_
*1029 _0983_
*1030 _0984_
*1031 _0985_
*1032 _0986_
*1033 _0987_
*1034 _0988_
*1035 _0989_
*1036 _0990_
*1037 _0991_
*1038 _0992_
*1039 _0993_
*1040 _0994_
*1041 _0995_
*1042 _0996_
*1043 _0997_
*1044 _0998_
*1045 _0999_
*1046 _1000_
*1047 _1001_
*1048 _1002_
*1049 _1003_
*1050 _1004_
*1051 _1005_
*1052 _1006_
*1053 _1007_
*1054 _1008_
*1055 _1009_
*1056 _1010_
*1057 _1011_
*1058 _1012_
*1059 _1013_
*1060 _1014_
*1061 _1015_
*1062 _1016_
*1063 _1017_
*1064 _1018_
*1065 _1019_
*1066 _1020_
*1067 _1021_
*1068 _1022_
*1069 _1023_
*1070 _1024_
*1071 _1025_
*1072 _1026_
*1073 _1027_
*1074 clknet_0_clk
*1075 clknet_2_0__leaf_clk
*1076 clknet_2_1__leaf_clk
*1077 clknet_2_2__leaf_clk
*1078 clknet_2_3__leaf_clk
*1079 clknet_leaf_0_clk
*1080 clknet_leaf_10_clk
*1081 clknet_leaf_11_clk
*1082 clknet_leaf_12_clk
*1083 clknet_leaf_13_clk
*1084 clknet_leaf_14_clk
*1085 clknet_leaf_15_clk
*1086 clknet_leaf_16_clk
*1087 clknet_leaf_17_clk
*1088 clknet_leaf_1_clk
*1089 clknet_leaf_2_clk
*1090 clknet_leaf_3_clk
*1091 clknet_leaf_4_clk
*1092 clknet_leaf_5_clk
*1093 clknet_leaf_6_clk
*1094 clknet_leaf_7_clk
*1095 clknet_leaf_8_clk
*1096 clknet_leaf_9_clk
*1097 daisychain\[0\]
*1098 daisychain\[100\]
*1099 daisychain\[101\]
*1100 daisychain\[102\]
*1101 daisychain\[103\]
*1102 daisychain\[104\]
*1103 daisychain\[105\]
*1104 daisychain\[106\]
*1105 daisychain\[107\]
*1106 daisychain\[108\]
*1107 daisychain\[109\]
*1108 daisychain\[10\]
*1109 daisychain\[110\]
*1110 daisychain\[111\]
*1111 daisychain\[112\]
*1112 daisychain\[113\]
*1113 daisychain\[114\]
*1114 daisychain\[115\]
*1115 daisychain\[116\]
*1116 daisychain\[117\]
*1117 daisychain\[118\]
*1118 daisychain\[119\]
*1119 daisychain\[11\]
*1120 daisychain\[120\]
*1121 daisychain\[121\]
*1122 daisychain\[122\]
*1123 daisychain\[123\]
*1124 daisychain\[124\]
*1125 daisychain\[125\]
*1126 daisychain\[126\]
*1127 daisychain\[127\]
*1128 daisychain\[12\]
*1129 daisychain\[13\]
*1130 daisychain\[14\]
*1131 daisychain\[15\]
*1132 daisychain\[16\]
*1133 daisychain\[17\]
*1134 daisychain\[18\]
*1135 daisychain\[19\]
*1136 daisychain\[1\]
*1137 daisychain\[20\]
*1138 daisychain\[21\]
*1139 daisychain\[22\]
*1140 daisychain\[23\]
*1141 daisychain\[24\]
*1142 daisychain\[25\]
*1143 daisychain\[26\]
*1144 daisychain\[27\]
*1145 daisychain\[28\]
*1146 daisychain\[29\]
*1147 daisychain\[2\]
*1148 daisychain\[30\]
*1149 daisychain\[31\]
*1150 daisychain\[32\]
*1151 daisychain\[33\]
*1152 daisychain\[34\]
*1153 daisychain\[35\]
*1154 daisychain\[36\]
*1155 daisychain\[37\]
*1156 daisychain\[38\]
*1157 daisychain\[39\]
*1158 daisychain\[3\]
*1159 daisychain\[40\]
*1160 daisychain\[41\]
*1161 daisychain\[42\]
*1162 daisychain\[43\]
*1163 daisychain\[44\]
*1164 daisychain\[45\]
*1165 daisychain\[46\]
*1166 daisychain\[47\]
*1167 daisychain\[48\]
*1168 daisychain\[49\]
*1169 daisychain\[4\]
*1170 daisychain\[50\]
*1171 daisychain\[51\]
*1172 daisychain\[52\]
*1173 daisychain\[53\]
*1174 daisychain\[54\]
*1175 daisychain\[55\]
*1176 daisychain\[56\]
*1177 daisychain\[57\]
*1178 daisychain\[58\]
*1179 daisychain\[59\]
*1180 daisychain\[5\]
*1181 daisychain\[60\]
*1182 daisychain\[61\]
*1183 daisychain\[62\]
*1184 daisychain\[63\]
*1185 daisychain\[64\]
*1186 daisychain\[65\]
*1187 daisychain\[66\]
*1188 daisychain\[67\]
*1189 daisychain\[68\]
*1190 daisychain\[69\]
*1191 daisychain\[6\]
*1192 daisychain\[70\]
*1193 daisychain\[71\]
*1194 daisychain\[72\]
*1195 daisychain\[73\]
*1196 daisychain\[74\]
*1197 daisychain\[75\]
*1198 daisychain\[76\]
*1199 daisychain\[77\]
*1200 daisychain\[78\]
*1201 daisychain\[79\]
*1202 daisychain\[7\]
*1203 daisychain\[80\]
*1204 daisychain\[81\]
*1205 daisychain\[82\]
*1206 daisychain\[83\]
*1207 daisychain\[84\]
*1208 daisychain\[85\]
*1209 daisychain\[86\]
*1210 daisychain\[87\]
*1211 daisychain\[88\]
*1212 daisychain\[89\]
*1213 daisychain\[8\]
*1214 daisychain\[90\]
*1215 daisychain\[91\]
*1216 daisychain\[92\]
*1217 daisychain\[93\]
*1218 daisychain\[94\]
*1219 daisychain\[95\]
*1220 daisychain\[96\]
*1221 daisychain\[97\]
*1222 daisychain\[98\]
*1223 daisychain\[99\]
*1224 daisychain\[9\]
*1225 digitalen\.g\[0\]\.u\.OUTN
*1226 digitalen\.g\[0\]\.u\.OUTP
*1227 digitalen\.g\[1\]\.u\.OUTN
*1228 digitalen\.g\[1\]\.u\.OUTP
*1229 digitalen\.g\[2\]\.u\.OUTN
*1230 digitalen\.g\[2\]\.u\.OUTP
*1231 digitalen\.g\[3\]\.u\.OUTN
*1232 digitalen\.g\[3\]\.u\.OUTP
*1233 net
*1234 net1
*1235 net10
*1236 net100
*1237 net101
*1238 net102
*1239 net103
*1240 net104
*1241 net105
*1242 net106
*1243 net107
*1244 net108
*1245 net109
*1246 net11
*1247 net110
*1248 net111
*1249 net112
*1250 net113
*1251 net114
*1252 net115
*1253 net116
*1254 net117
*1255 net118
*1256 net119
*1257 net12
*1258 net120
*1259 net121
*1260 net122
*1261 net123
*1262 net124
*1263 net125
*1264 net126
*1265 net127
*1266 net128
*1267 net129
*1268 net13
*1269 net130
*1270 net131
*1271 net132
*1272 net133
*1273 net134
*1274 net135
*1275 net136
*1276 net137
*1277 net138
*1278 net139
*1279 net14
*1280 net140
*1281 net141
*1282 net142
*1283 net143
*1284 net144
*1285 net145
*1286 net146
*1287 net147
*1288 net148
*1289 net149
*1290 net15
*1291 net150
*1292 net151
*1293 net152
*1294 net153
*1295 net154
*1296 net155
*1297 net156
*1298 net157
*1299 net158
*1300 net159
*1301 net16
*1302 net160
*1303 net161
*1304 net162
*1305 net163
*1306 net164
*1307 net165
*1308 net166
*1309 net167
*1310 net168
*1311 net169
*1312 net17
*1313 net170
*1314 net171
*1315 net172
*1316 net173
*1317 net174
*1318 net175
*1319 net176
*1320 net177
*1321 net178
*1322 net179
*1323 net18
*1324 net180
*1325 net181
*1326 net182
*1327 net183
*1328 net184
*1329 net185
*1330 net186
*1331 net187
*1332 net188
*1333 net189
*1334 net19
*1335 net190
*1336 net191
*1337 net192
*1338 net193
*1339 net194
*1340 net195
*1341 net196
*1342 net197
*1343 net198
*1344 net199
*1345 net2
*1346 net20
*1347 net200
*1348 net201
*1349 net202
*1350 net203
*1351 net204
*1352 net205
*1353 net206
*1354 net207
*1355 net208
*1356 net209
*1357 net21
*1358 net210
*1359 net211
*1360 net212
*1361 net213
*1362 net214
*1363 net215
*1364 net216
*1365 net217
*1366 net218
*1367 net219
*1368 net22
*1369 net220
*1370 net221
*1371 net222
*1372 net223
*1373 net224
*1374 net225
*1375 net226
*1376 net227
*1377 net228
*1378 net229
*1379 net23
*1380 net230
*1381 net231
*1382 net232
*1383 net233
*1384 net234
*1385 net235
*1386 net236
*1387 net237
*1388 net238
*1389 net239
*1390 net24
*1391 net240
*1392 net241
*1393 net242
*1394 net243
*1395 net244
*1396 net245
*1397 net246
*1398 net247
*1399 net248
*1400 net249
*1401 net25
*1402 net250
*1403 net251
*1404 net252
*1405 net253
*1406 net254
*1407 net255
*1408 net256
*1409 net257
*1410 net258
*1411 net259
*1412 net26
*1413 net260
*1414 net261
*1415 net262
*1416 net263
*1417 net264
*1418 net265
*1419 net266
*1420 net267
*1421 net268
*1422 net269
*1423 net27
*1424 net270
*1425 net271
*1426 net272
*1427 net273
*1428 net274
*1429 net275
*1430 net276
*1431 net277
*1432 net278
*1433 net279
*1434 net28
*1435 net280
*1436 net281
*1437 net282
*1438 net283
*1439 net284
*1440 net285
*1441 net286
*1442 net287
*1443 net288
*1444 net289
*1445 net29
*1446 net290
*1447 net291
*1448 net292
*1449 net293
*1450 net294
*1451 net295
*1452 net296
*1453 net297
*1454 net298
*1455 net299
*1456 net3
*1457 net30
*1458 net300
*1459 net301
*1460 net302
*1461 net303
*1462 net304
*1463 net305
*1464 net306
*1465 net307
*1466 net308
*1467 net309
*1468 net31
*1469 net310
*1470 net311
*1471 net312
*1472 net313
*1473 net314
*1474 net315
*1475 net316
*1476 net317
*1477 net318
*1478 net319
*1479 net32
*1480 net320
*1481 net321
*1482 net322
*1483 net323
*1484 net324
*1485 net325
*1486 net326
*1487 net327
*1488 net328
*1489 net329
*1490 net33
*1491 net330
*1492 net331
*1493 net332
*1494 net333
*1495 net334
*1496 net335
*1497 net336
*1498 net337
*1499 net338
*1500 net339
*1501 net34
*1502 net340
*1503 net341
*1504 net342
*1505 net343
*1506 net344
*1507 net345
*1508 net346
*1509 net347
*1510 net348
*1511 net349
*1512 net35
*1513 net350
*1514 net351
*1515 net352
*1516 net353
*1517 net354
*1518 net355
*1519 net356
*1520 net357
*1521 net358
*1522 net359
*1523 net36
*1524 net360
*1525 net361
*1526 net362
*1527 net363
*1528 net364
*1529 net365
*1530 net366
*1531 net367
*1532 net368
*1533 net369
*1534 net37
*1535 net370
*1536 net371
*1537 net372
*1538 net373
*1539 net374
*1540 net375
*1541 net376
*1542 net377
*1543 net378
*1544 net379
*1545 net38
*1546 net380
*1547 net381
*1548 net382
*1549 net383
*1550 net384
*1551 net385
*1552 net386
*1553 net387
*1554 net388
*1555 net389
*1556 net39
*1557 net390
*1558 net391
*1559 net392
*1560 net393
*1561 net394
*1562 net395
*1563 net396
*1564 net397
*1565 net398
*1566 net399
*1567 net4
*1568 net40
*1569 net400
*1570 net401
*1571 net402
*1572 net403
*1573 net404
*1574 net405
*1575 net406
*1576 net407
*1577 net408
*1578 net409
*1579 net41
*1580 net410
*1581 net411
*1582 net412
*1583 net413
*1584 net414
*1585 net415
*1586 net416
*1587 net417
*1588 net418
*1589 net419
*1590 net42
*1591 net420
*1592 net421
*1593 net422
*1594 net423
*1595 net424
*1596 net425
*1597 net426
*1598 net427
*1599 net428
*1600 net429
*1601 net43
*1602 net430
*1603 net431
*1604 net432
*1605 net433
*1606 net434
*1607 net435
*1608 net436
*1609 net437
*1610 net438
*1611 net439
*1612 net44
*1613 net440
*1614 net441
*1615 net442
*1616 net443
*1617 net444
*1618 net445
*1619 net446
*1620 net447
*1621 net448
*1622 net449
*1623 net45
*1624 net450
*1625 net451
*1626 net452
*1627 net453
*1628 net454
*1629 net455
*1630 net456
*1631 net46
*1632 net47
*1633 net48
*1634 net49
*1635 net5
*1636 net50
*1637 net51
*1638 net52
*1639 net53
*1640 net54
*1641 net55
*1642 net56
*1643 net57
*1644 net58
*1645 net59
*1646 net6
*1647 net60
*1648 net61
*1649 net62
*1650 net63
*1651 net64
*1652 net65
*1653 net66
*1654 net67
*1655 net68
*1656 net69
*1657 net7
*1658 net70
*1659 net71
*1660 net72
*1661 net73
*1662 net74
*1663 net75
*1664 net76
*1665 net77
*1666 net78
*1667 net79
*1668 net8
*1669 net80
*1670 net81
*1671 net82
*1672 net83
*1673 net84
*1674 net85
*1675 net86
*1676 net87
*1677 net88
*1678 net89
*1679 net9
*1680 net90
*1681 net91
*1682 net92
*1683 net93
*1684 net94
*1685 net95
*1686 net96
*1687 net97
*1688 net98
*1689 net99
*1690 state\[0\]
*1691 state\[100\]
*1692 state\[101\]
*1693 state\[102\]
*1694 state\[103\]
*1695 state\[104\]
*1696 state\[105\]
*1697 state\[106\]
*1698 state\[107\]
*1699 state\[108\]
*1700 state\[109\]
*1701 state\[10\]
*1702 state\[110\]
*1703 state\[111\]
*1704 state\[112\]
*1705 state\[113\]
*1706 state\[114\]
*1707 state\[115\]
*1708 state\[116\]
*1709 state\[117\]
*1710 state\[118\]
*1711 state\[119\]
*1712 state\[11\]
*1713 state\[120\]
*1714 state\[121\]
*1715 state\[122\]
*1716 state\[123\]
*1717 state\[124\]
*1718 state\[125\]
*1719 state\[126\]
*1720 state\[127\]
*1721 state\[12\]
*1722 state\[13\]
*1723 state\[14\]
*1724 state\[15\]
*1725 state\[16\]
*1726 state\[17\]
*1727 state\[18\]
*1728 state\[19\]
*1729 state\[1\]
*1730 state\[20\]
*1731 state\[21\]
*1732 state\[22\]
*1733 state\[23\]
*1734 state\[24\]
*1735 state\[25\]
*1736 state\[26\]
*1737 state\[27\]
*1738 state\[28\]
*1739 state\[29\]
*1740 state\[2\]
*1741 state\[30\]
*1742 state\[31\]
*1743 state\[32\]
*1744 state\[33\]
*1745 state\[34\]
*1746 state\[35\]
*1747 state\[36\]
*1748 state\[37\]
*1749 state\[38\]
*1750 state\[39\]
*1751 state\[3\]
*1752 state\[40\]
*1753 state\[41\]
*1754 state\[42\]
*1755 state\[43\]
*1756 state\[44\]
*1757 state\[45\]
*1758 state\[46\]
*1759 state\[47\]
*1760 state\[48\]
*1761 state\[49\]
*1762 state\[4\]
*1763 state\[50\]
*1764 state\[51\]
*1765 state\[52\]
*1766 state\[53\]
*1767 state\[54\]
*1768 state\[55\]
*1769 state\[56\]
*1770 state\[57\]
*1771 state\[58\]
*1772 state\[59\]
*1773 state\[5\]
*1774 state\[60\]
*1775 state\[61\]
*1776 state\[62\]
*1777 state\[63\]
*1778 state\[64\]
*1779 state\[65\]
*1780 state\[66\]
*1781 state\[67\]
*1782 state\[68\]
*1783 state\[69\]
*1784 state\[6\]
*1785 state\[70\]
*1786 state\[71\]
*1787 state\[72\]
*1788 state\[73\]
*1789 state\[74\]
*1790 state\[75\]
*1791 state\[76\]
*1792 state\[77\]
*1793 state\[78\]
*1794 state\[79\]
*1795 state\[7\]
*1796 state\[80\]
*1797 state\[81\]
*1798 state\[82\]
*1799 state\[83\]
*1800 state\[84\]
*1801 state\[85\]
*1802 state\[86\]
*1803 state\[87\]
*1804 state\[88\]
*1805 state\[89\]
*1806 state\[8\]
*1807 state\[90\]
*1808 state\[91\]
*1809 state\[92\]
*1810 state\[93\]
*1811 state\[94\]
*1812 state\[95\]
*1813 state\[96\]
*1814 state\[97\]
*1815 state\[98\]
*1816 state\[99\]
*1817 state\[9\]
*1818 FILLER_0_0
*1819 FILLER_0_1005
*1820 FILLER_0_1007
*1821 FILLER_0_1012
*1822 FILLER_0_1019
*1823 FILLER_0_1026
*1824 FILLER_0_1028
*1825 FILLER_0_105
*1826 FILLER_0_112
*1827 FILLER_0_119
*1828 FILLER_0_126
*1829 FILLER_0_133
*1830 FILLER_0_14
*1831 FILLER_0_140
*1832 FILLER_0_147
*1833 FILLER_0_154
*1834 FILLER_0_161
*1835 FILLER_0_168
*1836 FILLER_0_175
*1837 FILLER_0_182
*1838 FILLER_0_189
*1839 FILLER_0_196
*1840 FILLER_0_203
*1841 FILLER_0_21
*1842 FILLER_0_210
*1843 FILLER_0_217
*1844 FILLER_0_224
*1845 FILLER_0_231
*1846 FILLER_0_238
*1847 FILLER_0_245
*1848 FILLER_0_252
*1849 FILLER_0_259
*1850 FILLER_0_266
*1851 FILLER_0_273
*1852 FILLER_0_28
*1853 FILLER_0_280
*1854 FILLER_0_287
*1855 FILLER_0_294
*1856 FILLER_0_301
*1857 FILLER_0_308
*1858 FILLER_0_315
*1859 FILLER_0_322
*1860 FILLER_0_329
*1861 FILLER_0_336
*1862 FILLER_0_343
*1863 FILLER_0_35
*1864 FILLER_0_350
*1865 FILLER_0_357
*1866 FILLER_0_364
*1867 FILLER_0_371
*1868 FILLER_0_378
*1869 FILLER_0_385
*1870 FILLER_0_392
*1871 FILLER_0_399
*1872 FILLER_0_406
*1873 FILLER_0_413
*1874 FILLER_0_42
*1875 FILLER_0_420
*1876 FILLER_0_427
*1877 FILLER_0_434
*1878 FILLER_0_441
*1879 FILLER_0_448
*1880 FILLER_0_455
*1881 FILLER_0_462
*1882 FILLER_0_469
*1883 FILLER_0_476
*1884 FILLER_0_483
*1885 FILLER_0_49
*1886 FILLER_0_490
*1887 FILLER_0_497
*1888 FILLER_0_504
*1889 FILLER_0_511
*1890 FILLER_0_518
*1891 FILLER_0_525
*1892 FILLER_0_532
*1893 FILLER_0_539
*1894 FILLER_0_546
*1895 FILLER_0_553
*1896 FILLER_0_56
*1897 FILLER_0_560
*1898 FILLER_0_567
*1899 FILLER_0_574
*1900 FILLER_0_581
*1901 FILLER_0_588
*1902 FILLER_0_595
*1903 FILLER_0_602
*1904 FILLER_0_609
*1905 FILLER_0_616
*1906 FILLER_0_623
*1907 FILLER_0_63
*1908 FILLER_0_630
*1909 FILLER_0_637
*1910 FILLER_0_644
*1911 FILLER_0_651
*1912 FILLER_0_658
*1913 FILLER_0_665
*1914 FILLER_0_672
*1915 FILLER_0_679
*1916 FILLER_0_686
*1917 FILLER_0_693
*1918 FILLER_0_7
*1919 FILLER_0_70
*1920 FILLER_0_700
*1921 FILLER_0_707
*1922 FILLER_0_714
*1923 FILLER_0_721
*1924 FILLER_0_728
*1925 FILLER_0_735
*1926 FILLER_0_742
*1927 FILLER_0_749
*1928 FILLER_0_756
*1929 FILLER_0_763
*1930 FILLER_0_77
*1931 FILLER_0_770
*1932 FILLER_0_785
*1933 FILLER_0_792
*1934 FILLER_0_799
*1935 FILLER_0_803
*1936 FILLER_0_818
*1937 FILLER_0_825
*1938 FILLER_0_832
*1939 FILLER_0_839
*1940 FILLER_0_84
*1941 FILLER_0_846
*1942 FILLER_0_852
*1943 FILLER_0_859
*1944 FILLER_0_866
*1945 FILLER_0_868
*1946 FILLER_0_879
*1947 FILLER_0_886
*1948 FILLER_0_91
*1949 FILLER_0_915
*1950 FILLER_0_922
*1951 FILLER_0_935
*1952 FILLER_0_942
*1953 FILLER_0_949
*1954 FILLER_0_956
*1955 FILLER_0_974
*1956 FILLER_0_98
*1957 FILLER_0_981
*1958 FILLER_0_988
*1959 FILLER_10_100
*1960 FILLER_10_107
*1961 FILLER_10_114
*1962 FILLER_10_121
*1963 FILLER_10_128
*1964 FILLER_10_13
*1965 FILLER_10_135
*1966 FILLER_10_142
*1967 FILLER_10_149
*1968 FILLER_10_156
*1969 FILLER_10_163
*1970 FILLER_10_170
*1971 FILLER_10_177
*1972 FILLER_10_184
*1973 FILLER_10_191
*1974 FILLER_10_198
*1975 FILLER_10_205
*1976 FILLER_10_212
*1977 FILLER_10_219
*1978 FILLER_10_226
*1979 FILLER_10_233
*1980 FILLER_10_240
*1981 FILLER_10_247
*1982 FILLER_10_25
*1983 FILLER_10_254
*1984 FILLER_10_261
*1985 FILLER_10_268
*1986 FILLER_10_275
*1987 FILLER_10_282
*1988 FILLER_10_289
*1989 FILLER_10_296
*1990 FILLER_10_303
*1991 FILLER_10_310
*1992 FILLER_10_317
*1993 FILLER_10_32
*1994 FILLER_10_324
*1995 FILLER_10_331
*1996 FILLER_10_338
*1997 FILLER_10_345
*1998 FILLER_10_352
*1999 FILLER_10_359
*2000 FILLER_10_366
*2001 FILLER_10_373
*2002 FILLER_10_380
*2003 FILLER_10_387
*2004 FILLER_10_39
*2005 FILLER_10_394
*2006 FILLER_10_4
*2007 FILLER_10_401
*2008 FILLER_10_408
*2009 FILLER_10_415
*2010 FILLER_10_422
*2011 FILLER_10_429
*2012 FILLER_10_436
*2013 FILLER_10_443
*2014 FILLER_10_450
*2015 FILLER_10_457
*2016 FILLER_10_46
*2017 FILLER_10_464
*2018 FILLER_10_471
*2019 FILLER_10_478
*2020 FILLER_10_485
*2021 FILLER_10_492
*2022 FILLER_10_499
*2023 FILLER_10_506
*2024 FILLER_10_51
*2025 FILLER_10_513
*2026 FILLER_10_520
*2027 FILLER_10_527
*2028 FILLER_10_534
*2029 FILLER_10_541
*2030 FILLER_10_548
*2031 FILLER_10_555
*2032 FILLER_10_562
*2033 FILLER_10_569
*2034 FILLER_10_576
*2035 FILLER_10_58
*2036 FILLER_10_583
*2037 FILLER_10_590
*2038 FILLER_10_597
*2039 FILLER_10_604
*2040 FILLER_10_611
*2041 FILLER_10_618
*2042 FILLER_10_625
*2043 FILLER_10_632
*2044 FILLER_10_639
*2045 FILLER_10_645
*2046 FILLER_10_65
*2047 FILLER_10_656
*2048 FILLER_10_666
*2049 FILLER_10_672
*2050 FILLER_10_679
*2051 FILLER_10_686
*2052 FILLER_10_697
*2053 FILLER_10_704
*2054 FILLER_10_706
*2055 FILLER_10_72
*2056 FILLER_10_734
*2057 FILLER_10_741
*2058 FILLER_10_743
*2059 FILLER_10_754
*2060 FILLER_10_782
*2061 FILLER_10_786
*2062 FILLER_10_79
*2063 FILLER_10_798
*2064 FILLER_10_821