*SPEF "ieee 1481-1999"
*DESIGN "heichips25_pudding"
*DATE "21:17:51 Thursday February 12, 2026"
*VENDOR "The OpenROAD Project"
*PROGRAM "OpenROAD"
*VERSION "dfc4f595dfb2e1c346492ff1f0274abb28725acf"
*DESIGN_FLOW "NAME_SCOPE LOCAL" "PIN_CAP NONE"
*DIVIDER /
*DELIMITER :
*BUS_DELIMITER []
*T_UNIT 1 NS
*C_UNIT 1 PF
*R_UNIT 1 OHM
*L_UNIT 1 HENRY

*NAME_MAP
*3 clk
*4 ena
*5 i_in
*6 i_out
*7 rst_n
*8 ui_in[0]
*9 ui_in[1]
*10 ui_in[2]
*11 ui_in[3]
*12 ui_in[4]
*13 ui_in[5]
*14 ui_in[6]
*15 ui_in[7]
*16 uio_in[0]
*17 uio_in[1]
*18 uio_in[2]
*19 uio_in[3]
*20 uio_in[4]
*21 uio_in[5]
*22 uio_in[6]
*23 uio_in[7]
*24 net456
*25 net457
*26 net458
*27 net459
*28 net460
*29 net461
*30 net462
*31 net463
*32 uio_out[0]
*33 uio_out[1]
*34 uio_out[2]
*35 uio_out[3]
*36 uio_out[4]
*37 uio_out[5]
*38 uio_out[6]
*39 uio_out[7]
*40 uo_out[0]
*41 uo_out[1]
*42 uo_out[2]
*43 uo_out[3]
*44 uo_out[4]
*45 uo_out[5]
*46 uo_out[6]
*47 uo_out[7]
*48 _0000_
*49 _0001_
*50 _0002_
*51 _0003_
*52 _0004_
*53 _0005_
*54 _0006_
*55 _0007_
*56 _0008_
*57 _0009_
*58 _0010_
*59 _0011_
*60 _0012_
*61 _0013_
*62 _0014_
*63 _0015_
*64 _0016_
*65 _0017_
*66 _0018_
*67 _0019_
*68 _0020_
*69 _0021_
*70 _0022_
*71 _0023_
*72 _0024_
*73 _0025_
*74 _0026_
*75 _0027_
*76 _0028_
*77 _0029_
*78 _0030_
*79 _0031_
*80 _0032_
*81 _0033_
*82 _0034_
*83 _0035_
*84 _0036_
*85 _0037_
*86 _0038_
*87 _0039_
*88 _0040_
*89 _0041_
*90 _0042_
*91 _0043_
*92 _0044_
*93 _0045_
*94 _0046_
*95 _0047_
*96 _0048_
*97 _0049_
*98 _0050_
*99 _0051_
*100 _0052_
*101 _0053_
*102 _0054_
*103 _0055_
*104 _0056_
*105 _0057_
*106 _0058_
*107 _0059_
*108 _0060_
*109 _0061_
*110 _0062_
*111 _0063_
*112 _0064_
*113 _0065_
*114 _0066_
*115 _0067_
*116 _0068_
*117 _0069_
*118 _0070_
*119 _0071_
*120 _0072_
*121 _0073_
*122 _0074_
*123 _0075_
*124 _0076_
*125 _0077_
*126 _0078_
*127 _0079_
*128 _0080_
*129 _0081_
*130 _0082_
*131 _0083_
*132 _0084_
*133 _0085_
*134 _0086_
*135 _0087_
*136 _0088_
*137 _0089_
*138 _0090_
*139 _0091_
*140 _0092_
*141 _0093_
*142 _0094_
*143 _0095_
*144 _0096_
*145 _0097_
*146 _0098_
*147 _0099_
*148 _0100_
*149 _0101_
*150 _0102_
*151 _0103_
*152 _0104_
*153 _0105_
*154 _0106_
*155 _0107_
*156 _0108_
*157 _0109_
*158 _0110_
*159 _0111_
*160 _0112_
*161 _0113_
*162 _0114_
*163 _0115_
*164 _0116_
*165 _0117_
*166 _0118_
*167 _0119_
*168 _0120_
*169 _0121_
*170 _0122_
*171 _0123_
*172 _0124_
*173 _0125_
*174 _0126_
*175 _0127_
*176 _0128_
*177 _0129_
*178 _0130_
*179 _0131_
*180 _0132_
*181 _0133_
*182 _0134_
*183 _0135_
*184 _0136_
*185 _0137_
*186 _0138_
*187 _0139_
*188 _0140_
*189 _0141_
*190 _0142_
*191 _0143_
*192 _0144_
*193 _0145_
*194 _0146_
*195 _0147_
*196 _0148_
*197 _0149_
*198 _0150_
*199 _0151_
*200 _0152_
*201 _0153_
*202 _0154_
*203 _0155_
*204 _0156_
*205 _0157_
*206 _0158_
*207 _0159_
*208 _0160_
*209 _0161_
*210 _0162_
*211 _0163_
*212 _0164_
*213 _0165_
*214 _0166_
*215 _0167_
*216 _0168_
*217 _0169_
*218 _0170_
*219 _0171_
*220 _0172_
*221 _0173_
*222 _0174_
*223 _0175_
*224 _0176_
*225 _0177_
*226 _0178_
*227 _0179_
*228 _0180_
*229 _0181_
*230 _0182_
*231 _0183_
*232 _0184_
*233 _0185_
*234 _0186_
*235 _0187_
*236 _0188_
*237 _0189_
*238 _0190_
*239 _0191_
*240 _0192_
*241 _0193_
*242 _0194_
*243 _0195_
*244 _0196_
*245 _0197_
*246 _0198_
*247 _0199_
*248 _0200_
*249 _0201_
*250 _0202_
*251 _0203_
*252 _0204_
*253 _0205_
*254 _0206_
*255 _0207_
*256 _0208_
*257 _0209_
*258 _0210_
*259 _0211_
*260 _0212_
*261 _0213_
*262 _0214_
*263 _0215_
*264 _0216_
*265 _0217_
*266 _0218_
*267 _0219_
*268 _0220_
*269 _0221_
*270 _0222_
*271 _0223_
*272 _0224_
*273 _0225_
*274 _0226_
*275 _0227_
*276 _0228_
*277 _0229_
*278 _0230_
*279 _0231_
*280 _0232_
*281 _0233_
*282 _0234_
*283 _0235_
*284 _0236_
*285 _0237_
*286 _0238_
*287 _0239_
*288 _0240_
*289 _0241_
*290 _0242_
*291 _0243_
*292 _0244_
*293 _0245_
*294 _0246_
*295 _0247_
*296 _0248_
*297 _0249_
*298 _0250_
*299 _0251_
*300 _0252_
*301 _0253_
*302 _0254_
*303 _0255_
*304 _0256_
*305 _0257_
*306 _0258_
*307 _0259_
*308 _0260_
*309 _0261_
*310 _0262_
*311 _0263_
*312 _0264_
*313 _0265_
*314 _0266_
*315 _0267_
*316 _0268_
*317 _0269_
*318 _0270_
*319 _0271_
*320 _0272_
*321 _0273_
*322 _0274_
*323 _0275_
*324 _0276_
*325 _0277_
*326 _0278_
*327 _0279_
*328 _0280_
*329 _0281_
*330 _0282_
*331 _0283_
*332 _0284_
*333 _0285_
*334 _0286_
*335 _0287_
*336 _0288_
*337 _0289_
*338 _0290_
*339 _0291_
*340 _0292_
*341 _0293_
*342 _0294_
*343 _0295_
*344 _0296_
*345 _0297_
*346 _0298_
*347 _0299_
*348 _0300_
*349 _0301_
*350 _0302_
*351 _0303_
*352 _0304_
*353 _0305_
*354 _0306_
*355 _0307_
*356 _0308_
*357 _0309_
*358 _0310_
*359 _0311_
*360 _0312_
*361 _0313_
*362 _0314_
*363 _0315_
*364 _0316_
*365 _0317_
*366 _0318_
*367 _0319_
*368 _0320_
*369 _0321_
*370 _0322_
*371 _0323_
*372 _0324_
*373 _0325_
*374 _0326_
*375 _0327_
*376 _0328_
*377 _0329_
*378 _0330_
*379 _0331_
*380 _0332_
*381 _0333_
*382 _0334_
*383 _0335_
*384 _0336_
*385 _0337_
*386 _0338_
*387 _0339_
*388 _0340_
*389 _0341_
*390 _0342_
*391 _0343_
*392 _0344_
*393 _0345_
*394 _0346_
*395 _0347_
*396 _0348_
*397 _0349_
*398 _0350_
*399 _0351_
*400 _0352_
*401 _0353_
*402 _0354_
*403 _0355_
*404 _0356_
*405 _0357_
*406 _0358_
*407 _0359_
*408 _0360_
*409 _0361_
*410 _0362_
*411 _0363_
*412 _0364_
*413 _0365_
*414 _0366_
*415 _0367_
*416 _0368_
*417 _0369_
*418 _0370_
*419 _0371_
*420 _0372_
*421 _0373_
*422 _0374_
*423 _0375_
*424 _0376_
*425 _0377_
*426 _0378_
*427 _0379_
*428 _0380_
*429 _0381_
*430 _0382_
*431 _0383_
*432 _0384_
*433 _0385_
*434 _0386_
*435 _0387_
*436 _0388_
*437 _0389_
*438 _0390_
*439 _0391_
*440 _0392_
*441 _0393_
*442 _0394_
*443 _0395_
*444 _0396_
*445 _0397_
*446 _0398_
*447 _0399_
*448 _0400_
*449 _0401_
*450 _0402_
*451 _0403_
*452 _0404_
*453 _0405_
*454 _0406_
*455 _0407_
*456 _0408_
*457 _0409_
*458 _0410_
*459 _0411_
*460 _0412_
*461 _0413_
*462 _0414_
*463 _0415_
*464 _0416_
*465 _0417_
*466 _0418_
*467 _0419_
*468 _0420_
*469 _0421_
*470 _0422_
*471 _0423_
*472 _0424_
*473 _0425_
*474 _0426_
*475 _0427_
*476 _0428_
*477 _0429_
*478 _0430_
*479 _0431_
*480 _0432_
*481 _0433_
*482 _0434_
*483 _0435_
*484 _0436_
*485 _0437_
*486 _0438_
*487 _0439_
*488 _0440_
*489 _0441_
*490 _0442_
*491 _0443_
*492 _0444_
*493 _0445_
*494 _0446_
*495 _0447_
*496 _0448_
*497 _0449_
*498 _0450_
*499 _0451_
*500 _0452_
*501 _0453_
*502 _0454_
*503 _0455_
*504 _0456_
*505 _0457_
*506 _0458_
*507 _0459_
*508 _0460_
*509 _0461_
*510 _0462_
*511 _0463_
*512 _0464_
*513 _0465_
*514 _0466_
*515 _0467_
*516 _0468_
*517 _0469_
*518 _0470_
*519 _0471_
*520 _0472_
*521 _0473_
*522 _0474_
*523 _0475_
*524 _0476_
*525 _0477_
*526 _0478_
*527 _0479_
*528 _0480_
*529 _0481_
*530 _0482_
*531 _0483_
*532 _0484_
*533 _0485_
*534 _0486_
*535 _0487_
*536 _0488_
*537 _0489_
*538 _0490_
*539 _0491_
*540 _0492_
*541 _0493_
*542 _0494_
*543 _0495_
*544 _0496_
*545 _0497_
*546 _0498_
*547 _0499_
*548 _0500_
*549 _0501_
*550 _0502_
*551 _0503_
*552 _0504_
*553 _0505_
*554 _0506_
*555 _0507_
*556 _0508_
*557 _0509_
*558 _0510_
*559 _0511_
*560 _0512_
*561 _0513_
*562 _0514_
*563 _0515_
*564 _0516_
*565 _0517_
*566 _0518_
*567 _0519_
*568 _0520_
*569 _0521_
*570 _0522_
*571 _0523_
*572 _0524_
*573 _0525_
*574 _0526_
*575 _0527_
*576 _0528_
*577 _0529_
*578 _0530_
*579 _0531_
*580 _0532_
*581 _0533_
*582 _0534_
*583 _0535_
*584 _0536_
*585 _0537_
*586 _0538_
*587 _0539_
*588 _0540_
*589 _0541_
*590 _0542_
*591 _0543_
*592 _0544_
*593 _0545_
*594 _0546_
*595 _0547_
*596 _0548_
*597 _0549_
*598 _0550_
*599 _0551_
*600 _0552_
*601 _0553_
*602 _0554_
*603 _0555_
*604 _0556_
*605 _0557_
*606 _0558_
*607 _0559_
*608 _0560_
*609 _0561_
*610 _0562_
*611 _0563_
*612 _0564_
*613 _0565_
*614 _0566_
*615 _0567_
*616 _0568_
*617 _0569_
*618 _0570_
*619 _0571_
*620 _0572_
*621 _0573_
*622 _0574_
*623 _0575_
*624 _0576_
*625 _0577_
*626 _0578_
*627 _0579_
*628 _0580_
*629 _0581_
*630 _0582_
*631 _0583_
*632 _0584_
*633 _0585_
*634 _0586_
*635 _0587_
*636 _0588_
*637 _0589_
*638 _0590_
*639 _0591_
*640 _0592_
*641 _0593_
*642 _0594_
*643 _0595_
*644 _0596_
*645 _0597_
*646 _0598_
*647 _0599_
*648 _0600_
*649 _0601_
*650 _0602_
*651 _0603_
*652 _0604_
*653 _0605_
*654 _0606_
*655 _0607_
*656 _0608_
*657 _0609_
*658 _0610_
*659 _0611_
*660 _0612_
*661 _0613_
*662 _0614_
*663 _0615_
*664 _0616_
*665 _0617_
*666 _0618_
*667 _0619_
*668 _0620_
*669 _0621_
*670 _0622_
*671 _0623_
*672 _0624_
*673 _0625_
*674 _0626_
*675 _0627_
*676 _0628_
*677 _0629_
*678 _0630_
*679 _0631_
*680 _0632_
*681 _0633_
*682 _0634_
*683 _0635_
*684 _0636_
*685 _0637_
*686 _0638_
*687 _0639_
*688 _0640_
*689 _0641_
*690 _0642_
*691 _0643_
*692 _0644_
*693 _0645_
*694 _0646_
*695 _0647_
*696 _0648_
*697 _0649_
*698 _0650_
*699 _0651_
*700 _0652_
*701 _0653_
*702 _0654_
*703 _0655_
*704 _0656_
*705 _0657_
*706 _0658_
*707 _0659_
*708 _0660_
*709 _0661_
*710 _0662_
*711 _0663_
*712 _0664_
*713 _0665_
*714 _0666_
*715 _0667_
*716 _0668_
*717 _0669_
*718 _0670_
*719 _0671_
*720 _0672_
*721 _0673_
*722 _0674_
*723 _0675_
*724 _0676_
*725 _0677_
*726 _0678_
*727 _0679_
*728 _0680_
*729 _0681_
*730 _0682_
*731 _0683_
*732 _0684_
*733 _0685_
*734 _0686_
*735 _0687_
*736 _0688_
*737 _0689_
*738 _0690_
*739 _0691_
*740 _0692_
*741 _0693_
*742 _0694_
*743 _0695_
*744 _0696_
*745 _0697_
*746 _0698_
*747 _0699_
*748 _0700_
*749 _0701_
*750 _0702_
*751 _0703_
*752 _0704_
*753 _0705_
*754 _0706_
*755 _0707_
*756 _0708_
*757 _0709_
*758 _0710_
*759 _0711_
*760 _0712_
*761 _0713_
*762 _0714_
*763 _0715_
*764 _0716_
*765 _0717_
*766 _0718_
*767 _0719_
*768 _0720_
*769 _0721_
*770 _0722_
*771 _0723_
*772 _0724_
*773 _0725_
*774 _0726_
*775 _0727_
*776 _0728_
*777 _0729_
*778 _0730_
*779 _0731_
*780 _0732_
*781 _0733_
*782 _0734_
*783 _0735_
*784 _0736_
*785 _0737_
*786 _0738_
*787 _0739_
*788 _0740_
*789 _0741_
*790 _0742_
*791 _0743_
*792 _0744_
*793 _0745_
*794 _0746_
*795 _0747_
*796 _0748_
*797 _0749_
*798 _0750_
*799 _0751_
*800 _0752_
*801 _0753_
*802 _0754_
*803 _0755_
*804 _0756_
*805 _0757_
*806 _0758_
*807 _0759_
*808 _0760_
*809 _0761_
*810 _0762_
*811 _0763_
*812 _0764_
*813 _0765_
*814 _0766_
*815 _0767_
*816 _0768_
*817 _0769_
*818 _0770_
*819 _0771_
*820 _0772_
*821 _0773_
*822 _0774_
*823 _0775_
*824 _0776_
*825 _0777_
*826 _0778_
*827 _0779_
*828 _0780_
*829 _0781_
*830 _0782_
*831 _0783_
*832 _0784_
*833 _0785_
*834 _0786_
*835 _0787_
*836 _0788_
*837 _0789_
*838 _0790_
*839 _0791_
*840 _0792_
*841 _0793_
*842 _0794_
*843 _0795_
*844 _0796_
*845 _0797_
*846 _0798_
*847 _0799_
*848 _0800_
*849 _0801_
*850 _0802_
*851 _0803_
*852 _0804_
*853 _0805_
*854 _0806_
*855 _0807_
*856 _0808_
*857 _0809_
*858 _0810_
*859 _0811_
*860 _0812_
*861 _0813_
*862 _0814_
*863 _0815_
*864 _0816_
*865 _0817_
*866 _0818_
*867 _0819_
*868 _0820_
*869 _0821_
*870 _0822_
*871 _0823_
*872 _0824_
*873 _0825_
*874 _0826_
*875 _0827_
*876 _0828_
*877 _0829_
*878 _0830_
*879 _0831_
*880 _0832_
*881 _0833_
*882 _0834_
*883 _0835_
*884 _0836_
*885 _0837_
*886 _0838_
*887 _0839_
*888 _0840_
*889 _0841_
*890 _0842_
*891 _0843_
*892 _0844_
*893 _0845_
*894 _0846_
*895 _0847_
*896 _0848_
*897 _0849_
*898 _0850_
*899 _0851_
*900 _0852_
*901 _0853_
*902 _0854_
*903 _0855_
*904 _0856_
*905 _0857_
*906 _0858_
*907 _0859_
*908 _0860_
*909 _0861_
*910 _0862_
*911 _0863_
*912 _0864_
*913 _0865_
*914 _0866_
*915 _0867_
*916 _0868_
*917 _0869_
*918 _0870_
*919 _0871_
*920 _0872_
*921 _0873_
*922 _0874_
*923 _0875_
*924 _0876_
*925 _0877_
*926 _0878_
*927 _0879_
*928 _0880_
*929 _0881_
*930 _0882_
*931 _0883_
*932 _0884_
*933 _0885_
*934 _0886_
*935 _0887_
*936 _0888_
*937 _0889_
*938 _0890_
*939 _0891_
*940 _0892_
*941 _0893_
*942 _0894_
*943 _0895_
*944 _0896_
*945 _0897_
*946 _0898_
*947 _0899_
*948 _0900_
*949 _0901_
*950 _0902_
*951 _0903_
*952 _0904_
*953 _0905_
*954 _0906_
*955 _0907_
*956 _0908_
*957 _0909_
*958 _0910_
*959 _0911_
*960 _0912_
*961 _0913_
*962 _0914_
*963 _0915_
*964 _0916_
*965 _0917_
*966 _0918_
*967 _0919_
*968 _0920_
*969 _0921_
*970 _0922_
*971 _0923_
*972 _0924_
*973 _0925_
*974 _0926_
*975 _0927_
*976 _0928_
*977 _0929_
*978 _0930_
*979 _0931_
*980 _0932_
*981 _0933_
*982 _0934_
*983 _0935_
*984 _0936_
*985 _0937_
*986 _0938_
*987 _0939_
*988 _0940_
*989 _0941_
*990 _0942_
*991 _0943_
*992 _0944_
*993 _0945_
*994 _0946_
*995 _0947_
*996 _0948_
*997 _0949_
*998 _0950_
*999 _0951_
*1000 _0952_
*1001 _0953_
*1002 _0954_
*1003 _0955_
*1004 _0956_
*1005 _0957_
*1006 _0958_
*1007 _0959_
*1008 _0960_
*1009 _0961_
*1010 _0962_
*1011 _0963_
*1012 _0964_
*1013 _0965_
*1014 _0966_
*1015 _0967_
*1016 _0968_
*1017 _0969_
*1018 _0970_
*1019 _0971_
*1020 _0972_
*1021 _0973_
*1022 _0974_
*1023 _0975_
*1024 _0976_
*1025 _0977_
*1026 _0978_
*1027 _0979_
*1028 _0980_
*1029 _0981_
*1030 _0982_
*1031 _0983_
*1032 _0984_
*1033 _0985_
*1034 _0986_
*1035 _0987_
*1036 _0988_
*1037 _0989_
*1038 _0990_
*1039 _0991_
*1040 _0992_
*1041 _0993_
*1042 _0994_
*1043 _0995_
*1044 _0996_
*1045 _0997_
*1046 _0998_
*1047 _0999_
*1048 _1000_
*1049 _1001_
*1050 _1002_
*1051 _1003_
*1052 _1004_
*1053 _1005_
*1054 _1006_
*1055 _1007_
*1056 _1008_
*1057 _1009_
*1058 _1010_
*1059 _1011_
*1060 _1012_
*1061 _1013_
*1062 _1014_
*1063 _1015_
*1064 _1016_
*1065 _1017_
*1066 _1018_
*1067 _1019_
*1068 _1020_
*1069 _1021_
*1070 _1022_
*1071 _1023_
*1072 _1024_
*1073 _1025_
*1074 _1026_
*1075 _1027_
*1076 bias\[0\]
*1077 bias\[1\]
*1078 clknet_0_clk
*1079 clknet_2_0__leaf_clk
*1080 clknet_2_1__leaf_clk
*1081 clknet_2_2__leaf_clk
*1082 clknet_2_3__leaf_clk
*1083 clknet_leaf_0_clk
*1084 clknet_leaf_10_clk
*1085 clknet_leaf_11_clk
*1086 clknet_leaf_12_clk
*1087 clknet_leaf_13_clk
*1088 clknet_leaf_14_clk
*1089 clknet_leaf_15_clk
*1090 clknet_leaf_16_clk
*1091 clknet_leaf_17_clk
*1092 clknet_leaf_1_clk
*1093 clknet_leaf_2_clk
*1094 clknet_leaf_3_clk
*1095 clknet_leaf_4_clk
*1096 clknet_leaf_5_clk
*1097 clknet_leaf_6_clk
*1098 clknet_leaf_7_clk
*1099 clknet_leaf_8_clk
*1100 clknet_leaf_9_clk
*1101 daisychain\[0\]
*1102 daisychain\[100\]
*1103 daisychain\[101\]
*1104 daisychain\[102\]
*1105 daisychain\[103\]
*1106 daisychain\[104\]
*1107 daisychain\[105\]
*1108 daisychain\[106\]
*1109 daisychain\[107\]
*1110 daisychain\[108\]
*1111 daisychain\[109\]
*1112 daisychain\[10\]
*1113 daisychain\[110\]
*1114 daisychain\[111\]
*1115 daisychain\[112\]
*1116 daisychain\[113\]
*1117 daisychain\[114\]
*1118 daisychain\[115\]
*1119 daisychain\[116\]
*1120 daisychain\[117\]
*1121 daisychain\[118\]
*1122 daisychain\[119\]
*1123 daisychain\[11\]
*1124 daisychain\[120\]
*1125 daisychain\[121\]
*1126 daisychain\[122\]
*1127 daisychain\[123\]
*1128 daisychain\[124\]
*1129 daisychain\[125\]
*1130 daisychain\[126\]
*1131 daisychain\[127\]
*1132 daisychain\[12\]
*1133 daisychain\[13\]
*1134 daisychain\[14\]
*1135 daisychain\[15\]
*1136 daisychain\[16\]
*1137 daisychain\[17\]
*1138 daisychain\[18\]
*1139 daisychain\[19\]
*1140 daisychain\[1\]
*1141 daisychain\[20\]
*1142 daisychain\[21\]
*1143 daisychain\[22\]
*1144 daisychain\[23\]
*1145 daisychain\[24\]
*1146 daisychain\[25\]
*1147 daisychain\[26\]
*1148 daisychain\[27\]
*1149 daisychain\[28\]
*1150 daisychain\[29\]
*1151 daisychain\[2\]
*1152 daisychain\[30\]
*1153 daisychain\[31\]
*1154 daisychain\[32\]
*1155 daisychain\[33\]
*1156 daisychain\[34\]
*1157 daisychain\[35\]
*1158 daisychain\[36\]
*1159 daisychain\[37\]
*1160 daisychain\[38\]
*1161 daisychain\[39\]
*1162 daisychain\[3\]
*1163 daisychain\[40\]
*1164 daisychain\[41\]
*1165 daisychain\[42\]
*1166 daisychain\[43\]
*1167 daisychain\[44\]
*1168 daisychain\[45\]
*1169 daisychain\[46\]
*1170 daisychain\[47\]
*1171 daisychain\[48\]
*1172 daisychain\[49\]
*1173 daisychain\[4\]
*1174 daisychain\[50\]
*1175 daisychain\[51\]
*1176 daisychain\[52\]
*1177 daisychain\[53\]
*1178 daisychain\[54\]
*1179 daisychain\[55\]
*1180 daisychain\[56\]
*1181 daisychain\[57\]
*1182 daisychain\[58\]
*1183 daisychain\[59\]
*1184 daisychain\[5\]
*1185 daisychain\[60\]
*1186 daisychain\[61\]
*1187 daisychain\[62\]
*1188 daisychain\[63\]
*1189 daisychain\[64\]
*1190 daisychain\[65\]
*1191 daisychain\[66\]
*1192 daisychain\[67\]
*1193 daisychain\[68\]
*1194 daisychain\[69\]
*1195 daisychain\[6\]
*1196 daisychain\[70\]
*1197 daisychain\[71\]
*1198 daisychain\[72\]
*1199 daisychain\[73\]
*1200 daisychain\[74\]
*1201 daisychain\[75\]
*1202 daisychain\[76\]
*1203 daisychain\[77\]
*1204 daisychain\[78\]
*1205 daisychain\[79\]
*1206 daisychain\[7\]
*1207 daisychain\[80\]
*1208 daisychain\[81\]
*1209 daisychain\[82\]
*1210 daisychain\[83\]
*1211 daisychain\[84\]
*1212 daisychain\[85\]
*1213 daisychain\[86\]
*1214 daisychain\[87\]
*1215 daisychain\[88\]
*1216 daisychain\[89\]
*1217 daisychain\[8\]
*1218 daisychain\[90\]
*1219 daisychain\[91\]
*1220 daisychain\[92\]
*1221 daisychain\[93\]
*1222 daisychain\[94\]
*1223 daisychain\[95\]
*1224 daisychain\[96\]
*1225 daisychain\[97\]
*1226 daisychain\[98\]
*1227 daisychain\[99\]
*1228 daisychain\[9\]
*1229 digitalen\.g\[0\]\.u\.OUTN
*1230 digitalen\.g\[0\]\.u\.OUTP
*1231 digitalen\.g\[1\]\.u\.OUTN
*1232 digitalen\.g\[1\]\.u\.OUTP
*1233 digitalen\.g\[2\]\.u\.OUTN
*1234 digitalen\.g\[2\]\.u\.OUTP
*1235 digitalen\.g\[3\]\.u\.OUTN
*1236 digitalen\.g\[3\]\.u\.OUTP
*1237 net
*1238 net1
*1239 net10
*1240 net100
*1241 net101
*1242 net102
*1243 net103
*1244 net104
*1245 net105
*1246 net106
*1247 net107
*1248 net108
*1249 net109
*1250 net11
*1251 net110
*1252 net111
*1253 net112
*1254 net113
*1255 net114
*1256 net115
*1257 net116
*1258 net117
*1259 net118
*1260 net119
*1261 net12
*1262 net120
*1263 net121
*1264 net122
*1265 net123
*1266 net124
*1267 net125
*1268 net126
*1269 net127
*1270 net128
*1271 net129
*1272 net13
*1273 net130
*1274 net131
*1275 net132
*1276 net133
*1277 net134
*1278 net135
*1279 net136
*1280 net137
*1281 net138
*1282 net139
*1283 net14
*1284 net140
*1285 net141
*1286 net142
*1287 net143
*1288 net144
*1289 net145
*1290 net146
*1291 net147
*1292 net148
*1293 net149
*1294 net15
*1295 net150
*1296 net151
*1297 net152
*1298 net153
*1299 net154
*1300 net155
*1301 net156
*1302 net157
*1303 net158
*1304 net159
*1305 net16
*1306 net160
*1307 net161
*1308 net162
*1309 net163
*1310 net164
*1311 net165
*1312 net166
*1313 net167
*1314 net168
*1315 net169
*1316 net17
*1317 net170
*1318 net171
*1319 net172
*1320 net173
*1321 net174
*1322 net175
*1323 net176
*1324 net177
*1325 net178
*1326 net179
*1327 net18
*1328 net180
*1329 net181
*1330 net182
*1331 net183
*1332 net184
*1333 net185
*1334 net186
*1335 net187
*1336 net188
*1337 net189
*1338 net19
*1339 net190
*1340 net191
*1341 net192
*1342 net193
*1343 net194
*1344 net195
*1345 net196
*1346 net197
*1347 net198
*1348 net199
*1349 net2
*1350 net20
*1351 net200
*1352 net201
*1353 net202
*1354 net203
*1355 net204
*1356 net205
*1357 net206
*1358 net207
*1359 net208
*1360 net209
*1361 net21
*1362 net210
*1363 net211
*1364 net212
*1365 net213
*1366 net214
*1367 net215
*1368 net216
*1369 net217
*1370 net218
*1371 net219
*1372 net22
*1373 net220
*1374 net221
*1375 net222
*1376 net223
*1377 net224
*1378 net225
*1379 net226
*1380 net227
*1381 net228
*1382 net229
*1383 net23
*1384 net230
*1385 net231
*1386 net232
*1387 net233
*1388 net234
*1389 net235
*1390 net236
*1391 net237
*1392 net238
*1393 net239
*1394 net24
*1395 net240
*1396 net241
*1397 net242
*1398 net243
*1399 net244
*1400 net245
*1401 net246
*1402 net247
*1403 net248
*1404 net249
*1405 net25
*1406 net250
*1407 net251
*1408 net252
*1409 net253
*1410 net254
*1411 net255
*1412 net256
*1413 net257
*1414 net258
*1415 net259
*1416 net26
*1417 net260
*1418 net261
*1419 net262
*1420 net263
*1421 net264
*1422 net265
*1423 net266
*1424 net267
*1425 net268
*1426 net269
*1427 net27
*1428 net270
*1429 net271
*1430 net272
*1431 net273
*1432 net274
*1433 net275
*1434 net276
*1435 net277
*1436 net278
*1437 net279
*1438 net28
*1439 net280
*1440 net281
*1441 net282
*1442 net283
*1443 net284
*1444 net285
*1445 net286
*1446 net287
*1447 net288
*1448 net289
*1449 net29
*1450 net290
*1451 net291
*1452 net292
*1453 net293
*1454 net294
*1455 net295
*1456 net296
*1457 net297
*1458 net298
*1459 net299
*1460 net3
*1461 net30
*1462 net300
*1463 net301
*1464 net302
*1465 net303
*1466 net304
*1467 net305
*1468 net306
*1469 net307
*1470 net308
*1471 net309
*1472 net31
*1473 net310
*1474 net311
*1475 net312
*1476 net313
*1477 net314
*1478 net315
*1479 net316
*1480 net317
*1481 net318
*1482 net319
*1483 net32
*1484 net320
*1485 net321
*1486 net322
*1487 net323
*1488 net324
*1489 net325
*1490 net326
*1491 net327
*1492 net328
*1493 net329
*1494 net33
*1495 net330
*1496 net331
*1497 net332
*1498 net333
*1499 net334
*1500 net335
*1501 net336
*1502 net337
*1503 net338
*1504 net339
*1505 net34
*1506 net340
*1507 net341
*1508 net342
*1509 net343
*1510 net344
*1511 net345
*1512 net346
*1513 net347
*1514 net348
*1515 net349
*1516 net35
*1517 net350
*1518 net351
*1519 net352
*1520 net353
*1521 net354
*1522 net355
*1523 net356
*1524 net357
*1525 net358
*1526 net359
*1527 net36
*1528 net360
*1529 net361
*1530 net362
*1531 net363
*1532 net364
*1533 net365
*1534 net366
*1535 net367
*1536 net368
*1537 net369
*1538 net37
*1539 net370
*1540 net371
*1541 net372
*1542 net373
*1543 net374
*1544 net375
*1545 net376
*1546 net377
*1547 net378
*1548 net379
*1549 net38
*1550 net380
*1551 net381
*1552 net382
*1553 net383
*1554 net384
*1555 net385
*1556 net386
*1557 net387
*1558 net388
*1559 net389
*1560 net39
*1561 net390
*1562 net391
*1563 net392
*1564 net393
*1565 net394
*1566 net395
*1567 net396
*1568 net397
*1569 net398
*1570 net399
*1571 net4
*1572 net40
*1573 net400
*1574 net401
*1575 net402
*1576 net403
*1577 net404
*1578 net405
*1579 net406
*1580 net407
*1581 net408
*1582 net409
*1583 net41
*1584 net410
*1585 net411
*1586 net412
*1587 net413
*1588 net414
*1589 net415
*1590 net416
*1591 net417
*1592 net418
*1593 net419
*1594 net42
*1595 net420
*1596 net421
*1597 net422
*1598 net423
*1599 net424
*1600 net425
*1601 net426
*1602 net427
*1603 net428
*1604 net429
*1605 net43
*1606 net430
*1607 net431
*1608 net432
*1609 net433
*1610 net434
*1611 net435
*1612 net436
*1613 net437
*1614 net438
*1615 net439
*1616 net44
*1617 net440
*1618 net441
*1619 net442
*1620 net443
*1621 net444
*1622 net445
*1623 net446
*1624 net447
*1625 net448
*1626 net449
*1627 net45
*1628 net450
*1629 net451
*1630 net452
*1631 net453
*1632 net454
*1633 net455
*1634 net46
*1635 net47
*1636 net48
*1637 net49
*1638 net5
*1639 net50
*1640 net51
*1641 net52
*1642 net53
*1643 net54
*1644 net55
*1645 net56
*1646 net57
*1647 net58
*1648 net59
*1649 net6
*1650 net60
*1651 net61
*1652 net62
*1653 net63
*1654 net64
*1655 net65
*1656 net66
*1657 net67
*1658 net68
*1659 net69
*1660 net7
*1661 net70
*1662 net71
*1663 net72
*1664 net73
*1665 net74
*1666 net75
*1667 net76
*1668 net77
*1669 net78
*1670 net79
*1671 net8
*1672 net80
*1673 net81
*1674 net82
*1675 net83
*1676 net84
*1677 net85
*1678 net86
*1679 net87
*1680 net88
*1681 net89
*1682 net9
*1683 net90
*1684 net91
*1685 net92
*1686 net93
*1687 net94
*1688 net95
*1689 net96
*1690 net97
*1691 net98
*1692 net99
*1693 state\[0\]
*1694 state\[100\]
*1695 state\[101\]
*1696 state\[102\]
*1697 state\[103\]
*1698 state\[104\]
*1699 state\[105\]
*1700 state\[106\]
*1701 state\[107\]
*1702 state\[108\]
*1703 state\[109\]
*1704 state\[10\]
*1705 state\[110\]
*1706 state\[111\]
*1707 state\[112\]
*1708 state\[113\]
*1709 state\[114\]
*1710 state\[115\]
*1711 state\[116\]
*1712 state\[117\]
*1713 state\[118\]
*1714 state\[119\]
*1715 state\[11\]
*1716 state\[120\]
*1717 state\[121\]
*1718 state\[122\]
*1719 state\[123\]
*1720 state\[124\]
*1721 state\[125\]
*1722 state\[126\]
*1723 state\[127\]
*1724 state\[12\]
*1725 state\[13\]
*1726 state\[14\]
*1727 state\[15\]
*1728 state\[16\]
*1729 state\[17\]
*1730 state\[18\]
*1731 state\[19\]
*1732 state\[1\]
*1733 state\[20\]
*1734 state\[21\]
*1735 state\[22\]
*1736 state\[23\]
*1737 state\[24\]
*1738 state\[25\]
*1739 state\[26\]
*1740 state\[27\]
*1741 state\[28\]
*1742 state\[29\]
*1743 state\[2\]
*1744 state\[30\]
*1745 state\[31\]
*1746 state\[32\]
*1747 state\[33\]
*1748 state\[34\]
*1749 state\[35\]
*1750 state\[36\]
*1751 state\[37\]
*1752 state\[38\]
*1753 state\[39\]
*1754 state\[3\]
*1755 state\[40\]
*1756 state\[41\]
*1757 state\[42\]
*1758 state\[43\]
*1759 state\[44\]
*1760 state\[45\]
*1761 state\[46\]
*1762 state\[47\]
*1763 state\[48\]
*1764 state\[49\]
*1765 state\[4\]
*1766 state\[50\]
*1767 state\[51\]
*1768 state\[52\]
*1769 state\[53\]
*1770 state\[54\]
*1771 state\[55\]
*1772 state\[56\]
*1773 state\[57\]
*1774 state\[58\]
*1775 state\[59\]
*1776 state\[5\]
*1777 state\[60\]
*1778 state\[61\]
*1779 state\[62\]
*1780 state\[63\]
*1781 state\[64\]
*1782 state\[65\]
*1783 state\[66\]
*1784 state\[67\]
*1785 state\[68\]
*1786 state\[69\]
*1787 state\[6\]
*1788 state\[70\]
*1789 state\[71\]
*1790 state\[72\]
*1791 state\[73\]
*1792 state\[74\]
*1793 state\[75\]
*1794 state\[76\]
*1795 state\[77\]
*1796 state\[78\]
*1797 state\[79\]
*1798 state\[7\]
*1799 state\[80\]
*1800 state\[81\]
*1801 state\[82\]
*1802 state\[83\]
*1803 state\[84\]
*1804 state\[85\]
*1805 state\[86\]
*1806 state\[87\]
*1807 state\[88\]
*1808 state\[89\]
*1809 state\[8\]
*1810 state\[90\]
*1811 state\[91\]
*1812 state\[92\]
*1813 state\[93\]
*1814 state\[94\]
*1815 state\[95\]
*1816 state\[96\]
*1817 state\[97\]
*1818 state\[98\]
*1819 state\[99\]
*1820 state\[9\]
*1821 FILLER_0_0
*1822 FILLER_0_1005
*1823 FILLER_0_1007
*1824 FILLER_0_1012
*1825 FILLER_0_1019
*1826 FILLER_0_1026
*1827 FILLER_0_1028
*1828 FILLER_0_105
*1829 FILLER_0_112
*1830 FILLER_0_119
*1831 FILLER_0_126
*1832 FILLER_0_133
*1833 FILLER_0_14
*1834 FILLER_0_140
*1835 FILLER_0_147
*1836 FILLER_0_154
*1837 FILLER_0_161
*1838 FILLER_0_168
*1839 FILLER_0_175
*1840 FILLER_0_182
*1841 FILLER_0_189
*1842 FILLER_0_196
*1843 FILLER_0_203
*1844 FILLER_0_21
*1845 FILLER_0_210
*1846 FILLER_0_217
*1847 FILLER_0_224
*1848 FILLER_0_231
*1849 FILLER_0_238
*1850 FILLER_0_245
*1851 FILLER_0_252
*1852 FILLER_0_259
*1853 FILLER_0_266
*1854 FILLER_0_273
*1855 FILLER_0_28
*1856 FILLER_0_280
*1857 FILLER_0_287
*1858 FILLER_0_294
*1859 FILLER_0_301
*1860 FILLER_0_308
*1861 FILLER_0_315
*1862 FILLER_0_322
*1863 FILLER_0_329
*1864 FILLER_0_336
*1865 FILLER_0_343
*1866 FILLER_0_35
*1867 FILLER_0_350
*1868 FILLER_0_357
*1869 FILLER_0_364
*1870 FILLER_0_371
*1871 FILLER_0_378
*1872 FILLER_0_385
*1873 FILLER_0_392
*1874 FILLER_0_399
*1875 FILLER_0_406
*1876 FILLER_0_413
*1877 FILLER_0_42
*1878 FILLER_0_420
*1879 FILLER_0_427
*1880 FILLER_0_434
*1881 FILLER_0_441
*1882 FILLER_0_448
*1883 FILLER_0_455
*1884 FILLER_0_462
*1885 FILLER_0_469
*1886 FILLER_0_476
*1887 FILLER_0_483
*1888 FILLER_0_49
*1889 FILLER_0_490
*1890 FILLER_0_497
*1891 FILLER_0_504
*1892 FILLER_0_511
*1893 FILLER_0_518
*1894 FILLER_0_525
*1895 FILLER_0_532
*1896 FILLER_0_539
*1897 FILLER_0_546
*1898 FILLER_0_553
*1899 FILLER_0_56
*1900 FILLER_0_560
*1901 FILLER_0_567
*1902 FILLER_0_574
*1903 FILLER_0_581
*1904 FILLER_0_588
*1905 FILLER_0_595
*1906 FILLER_0_602
*1907 FILLER_0_609
*1908 FILLER_0_616
*1909 FILLER_0_623
*1910 FILLER_0_63
*1911 FILLER_0_630
*1912 FILLER_0_637
*1913 FILLER_0_644
*1914 FILLER_0_651
*1915 FILLER_0_658
*1916 FILLER_0_665
*1917 FILLER_0_672
*1918 FILLER_0_679
*1919 FILLER_0_686
*1920 FILLER_0_693
*1921 FILLER_0_7
*1922 FILLER_0_70
*1923 FILLER_0_700
*1924 FILLER_0_707
*1925 FILLER_0_714
*1926 FILLER_0_721
*1927 FILLER_0_728
*1928 FILLER_0_735
*1929 FILLER_0_742
*1930 FILLER_0_749
*1931 FILLER_0_756
*1932 FILLER_0_763
*1933 FILLER_0_77
*1934 FILLER_0_770
*1935 FILLER_0_786
*1936 FILLER_0_793
*1937 FILLER_0_800
*1938 FILLER_0_818
*1939 FILLER_0_825
*1940 FILLER_0_832
*1941 FILLER_0_839
*1942 FILLER_0_84
*1943 FILLER_0_846
*1944 FILLER_0_852
*1945 FILLER_0_859
*1946 FILLER_0_866
*1947 FILLER_0_868
*1948 FILLER_0_879
*1949 FILLER_0_886
*1950 FILLER_0_888
*1951 FILLER_0_91
*1952 FILLER_0_916
*1953 FILLER_0_923
*1954 FILLER_0_925
*1955 FILLER_0_935
*1956 FILLER_0_942
*1957 FILLER_0_949
*1958 FILLER_0_956
*1959 FILLER_0_974
*1960 FILLER_0_98
*1961 FILLER_0_981
*1962 FILLER_0_988
*1963 FILLER_10_101
*1964 FILLER_10_108
*1965 FILLER_10_115
*1966 FILLER_10_122
*1967 FILLER_10_129
*1968 FILLER_10_136
*1969 FILLER_10_143
*1970 FILLER_10_150
*1971 FILLER_10_157
*1972 FILLER_10_164
*1973 FILLER_10_171
*1974 FILLER_10_178
*1975 FILLER_10_185
*1976 FILLER_10_192
*1977 FILLER_10_199
*1978 FILLER_10_206
*1979 FILLER_10_213
*1980 FILLER_10_220
*1981 FILLER_10_227
*1982 FILLER_10_234
*1983 FILLER_10_24
*1984 FILLER_10_241
*1985 FILLER_10_248
*1986 FILLER_10_255
*1987 FILLER_10_262
*1988 FILLER_10_269
*1989 FILLER_10_276
*1990 FILLER_10_283
*1991 FILLER_10_290
*1992 FILLER_10_297
*1993 FILLER_10_304
*1994 FILLER_10_31
*1995 FILLER_10_311
*1996 FILLER_10_318
*1997 FILLER_10_325
*1998 FILLER_10_332
*1999 FILLER_10_339
*2000 FILLER_10_346
*2001 FILLER_10_353
*2002 FILLER_10_360
*2003 FILLER_10_367
*2004 FILLER_10_374
*2005 FILLER_10_38
*2006 FILLER_10_381
*2007 FILLER_10_388
*2008 FILLER_10_395
*2009 FILLER_10_4
*2010 FILLER_10_402
*2011 FILLER_10_409
*2012 FILLER_10_416
*2013 FILLER_10_423
*2014 FILLER_10_430
*2015 FILLER_10_437
*2016 FILLER_10_444
*2017 FILLER_10_45
*2018 FILLER_10_451
*2019 FILLER_10_458
*2020 FILLER_10_465
*2021 FILLER_10_472
*2022 FILLER_10_479
*2023 FILLER_10_486
*2024 FILLER_10_493
*2025 FILLER_10_500
*2026 FILLER_10_507
*2027 FILLER_10_514
*2028 FILLER_10_52
*2029 FILLER_10_521
*2030 FILLER_10_528
*2031 FILLER_10_535
*2032 FILLER_10_542
*2033 FILLER_10_549
*2034 FILLER_10_556
*2035 FILLER_10_563
*2036 FILLER_10_570
*2037 FILLER_10_577
*2038 FILLER_10_584
*2039 FILLER_10_59
*2040 FILLER_10_591
*2041 FILLER_10_598
*2042 FILLER_10_605
*2043 FILLER_10_612
*2044 FILLER_10_619
*2045 FILLER_10_626
*2046 FILLER_10_633
*2047 FILLER_10_640
*2048 FILLER_10_647
*2049 FILLER_10_651
*2050 FILLER_10_657
*2051 FILLER_10_66
*2052 FILLER_10_668
*2053 FILLER_10_675
*2054 FILLER_10_682
*2055 FILLER_10_689
*2056 FILLER_10_695
*2057 FILLER_10_702
*2058 FILLER_10_706
*2059 FILLER_10_73
*2060 FILLER_10_734
*2061 FILLER_10_738
*2062 FILLER_10_744
*2063 FILLER_10_782
*2064 FILLER_10_786
*2065 FILLER_10_798